-------------------------------------------------------
          Amber 18 PMEMD                              2018
          -------------------------------------------------------

  [-O]verwriting output

File Assignments:

 Here is the input file:

 &cntrl
   nstlim=500000, nscm=1000,
   ntx=5, irest=1, ntpr=1000,
   tempi=300.0, temp0=300.0, ntt=3, gamma_ln=2.0,
   ntp=1, pres0=1.01325, taup=5.0,
   ntb=2, igb=0, cut=10.0,
   dt=0.002, ig=-1,
   ntc=2, ntf=2,
   iwrap=0,
   ntwr=1000, ntwx=50000, ntave=1000,
   ioutfm=1, ntwv=-1,
   ifsc = 0, icfe=1,
   clambda=0.99078,
   timask1=':1',
   timask2=':2', crgmask = ':2',
/

Note: ig = -1. Setting random seed to   566282 based on wallclock time in
      microseconds.

--------------------------------------------------------------------------------
   1.  RESOURCE   USE:
--------------------------------------------------------------------------------

 getting box info from netcdf restart file
 NATOM  =   20852 NTYPES =       6 NBONH =   20844 MBONA  =       6
 NTHETH =      12 MTHETA =       6 NPHIH =      24 MPHIA  =       2
 NHPARM =       0 NPARM  =       0 NNB   =   27828 NRES   =    6948
 NBONA  =       6 NTHETA =       6 NPHIA =       2 NUMBND =       5
 NUMANG =       4 NPTRA  =       3 NATYP =       6 NPHB   =       1
 IFBOX  =       2 NMXRS  =       7 IFCAP =       0 NEXTRA =       0
 NCOPY  =       0

     BOX TYPE: TRUNCATED OCTAHEDRON

--------------------------------------------------------------------------------
   2.  CONTROL  DATA  FOR  THE  RUN
--------------------------------------------------------------------------------

default_name

General flags:
     imin    =       0, nmropt  =       0

Nature and format of input:
     ntx     =       5, irest   =       1, ntrx    =       1

Nature and format of output:
     ntxo    =       2, ntpr    =    1000, ntrx    =       1, ntwr    =    1000
     iwrap   =       0, ntwx    =   50000, ntwv    =      -1, ntwe    =       0
     ioutfm  =       1, ntwprt  =       0, idecomp =       0, rbornstat=      0

Potential function:
     ntf     =       2, ntb     =       2, igb     =       0, nsnb    =      25
     ipol    =       0, gbsa    =       0, iesp    =       0
     dielc   =   1.00000, cut     =  10.00000, intdiel =   1.00000

Frozen or restrained atoms:
     ibelly  =       0, ntr     =       0

Molecular dynamics:
     nstlim  =    500000, nscm    =      1000, nrespa  =         1
     t       =   0.00000, dt      =   0.00200, vlimit  =  -1.00000

Langevin dynamics temperature regulation:
     ig      =  566282
     temp0   = 300.00000, tempi   = 300.00000, gamma_ln=   2.00000

Pressure regulation:
     ntp     =       1
     pres0   =   1.01325, comp    =  44.60000, taup    =   5.00000

SHAKE:
     ntc     =       2, jfastw  =       0
     tol     =   0.00001

Free energy options:
     icfe    =       1, ifsc    =       0, klambda =       1
     clambda =  0.9908, scalpha =  0.5000, scbeta  = 12.0000
     sceeorder =       2
     dynlmb =  0.0000 logdvdl =       0

Ewald parameters:
     verbose =       0, ew_type =       0, nbflag  =       1, use_pme =       1
     vdwmeth =       1, eedmeth =       1, netfrc  =       1
     Box X =   66.953   Box Y =   66.953   Box Z =   66.953
     Alpha =  109.471   Beta  =  109.471   Gamma =  109.471
     NFFT1 =   64       NFFT2 =   64       NFFT3 =   64
     Cutoff=   10.000   Tol   =0.100E-04
     Ewald Coefficient =  0.27511
     Interpolation order =    4
     TI Mask 1 :1; matches      7 atoms
     TI Mask 2 :2; matches      7 atoms
     TI region 1:   20845 atoms
     TI region 2:   20845 atoms
Removing charge of      -0.8188 from atom       8
Removing charge of      -0.8188 from atom       9
Removing charge of       0.8054 from atom      10
Removing charge of      -0.1021 from atom      11
Removing charge of      -0.0219 from atom      12
Removing charge of      -0.0219 from atom      13
Removing charge of      -0.0219 from atom      14
Total charge of  -0.99999900 removed from       7 atoms
     Checking for mismatched coordinates.

--------------------------------------------------------------------------------
   3.  ATOMIC COORDINATES AND VELOCITIES
--------------------------------------------------------------------------------

default_name
 begin time read from input coords =   200.000 ps

 Number of triangulated 3-point waters found:     6946

     Sum of charges for TI region  1 =  -1.00000662
     Assuming uniform neutralizing plasma

     Sum of charges for TI region  2 =  -0.00000762
     Forcing neutrality...

--------------------------------------------------------------------------------
   4.  RESULTS
 NSTEP =     1000   TIME(PS) =     202.000  TEMP(K) =   297.44  PRESS =  -934.9
 Etot   =    -64094.6157  EKtot   =     12321.8408  EPtot      =    -76416.4565
 BOND   =         0.4567  ANGLE   =         4.7805  DIHED      =         5.3331
 1-4 NB =         0.4430  1-4 EEL =         0.0977  VDWAALS    =     14179.4980
 EELEC  =    -90607.0654  EHBOND  =         0.0000  RESTRAINT  =         0.0000
 EKCMT  =      6210.9897  VIRIAL  =     10799.4045  VOLUME     =    227302.8398
                                                    Density    =         0.9146
 DV/DL  =         5.8992
 ------------------------------------------------------------------------------

      A V E R A G E S   O V E R    1000 S T E P S

 NSTEP =     1000   TIME(PS) =     202.000  TEMP(K) =   299.63  PRESS =  -913.3
 Etot   =    -63936.9692  EKtot   =     12412.7279  EPtot      =    -76349.6971
 BOND   =         0.9275  ANGLE   =         5.7646  DIHED      =         5.2800
 1-4 NB =         0.5008  1-4 EEL =         0.0972  VDWAALS    =     14216.2481
 EELEC  =    -90578.5153  EHBOND  =         0.0000  RESTRAINT  =         0.0000
 EKCMT  =      6231.3288  VIRIAL  =     10750.4802  VOLUME     =    229093.2153
                                                    Density    =         0.9075
 DV/DL  =         4.8606
 ------------------------------------------------------------------------------

      R M S  F L U C T U A T I O N S

 NSTEP =     1000   TIME(PS) =     202.000  TEMP(K) =     2.08  PRESS =   122.0
 Etot   =       154.8880  EKtot   =        86.3458  EPtot      =       125.3053
 BOND   =         0.7168  ANGLE   =         1.2903  DIHED      =         0.0723
 1-4 NB =         0.2559  1-4 EEL =         0.0014  VDWAALS    =       118.6335
 EELEC  =       202.5957  EHBOND  =         0.0000  RESTRAINT  =         0.0000
 EKCMT  =        57.8620  VIRIAL  =       613.3186  VOLUME     =      1074.6317
                                                    Density    =         0.0043
 DV/DL  =         7.6454
 ------------------------------------------------------------------------------

      A V E R A G E S   O V E R    1000 S T E P S

 NSTEP =     1000   TIME(PS) =     202.000  TEMP(K) =   299.63  PRESS =  -913.3
 Etot   =    -63936.9692  EKtot   =     12412.7279  EPtot      =    -76349.6971
 BOND   =         0.9275  ANGLE   =         5.7646  DIHED      =         5.2800
 1-4 NB =         0.5008  1-4 EEL =         0.0972  VDWAALS    =     14216.2481
 EELEC  =    -90578.5153  EHBOND  =         0.0000  RESTRAINT  =         0.0000
 EKCMT  =      6231.3288  VIRIAL  =     10750.4802  VOLUME     =    229093.2153
                                                    Density    =         0.9075
 DV/DL  =         4.8606
 ------------------------------------------------------------------------------

      R M S  F L U C T U A T I O N S

 NSTEP =     1000   TIME(PS) =     202.000  TEMP(K) =     2.08  PRESS =   122.0
 Etot   =       154.8880  EKtot   =        86.3458  EPtot      =       125.3053
 BOND   =         0.7168  ANGLE   =         1.2903  DIHED      =         0.0723
 1-4 NB =         0.2559  1-4 EEL =         0.0014  VDWAALS    =       118.6335
 EELEC  =       202.5957  EHBOND  =         0.0000  RESTRAINT  =         0.0000
 EKCMT  =        57.8620  VIRIAL  =       613.3186  VOLUME     =      1074.6317
                                                    Density    =         0.0043
 DV/DL  =         7.6454
 ------------------------------------------------------------------------------

      DV/DL, AVERAGES OVER    1000 STEPS

 NSTEP =     1000   TIME(PS) =     202.000  TEMP(K) =     2.08  PRESS =     0.0
 Etot   =         0.0000  EKtot   =         0.0000  EPtot      =         4.8606
 BOND   =         0.0000  ANGLE   =         0.0000  DIHED      =         0.0000
 1-4 NB =         0.0000  1-4 EEL =       -10.5381  VDWAALS    =         0.0000
 EELEC  =        15.3987  EHBOND  =         0.0000  RESTRAINT  =         0.0000
 EKCMT  =         0.0000  VIRIAL  =         0.0000  VOLUME     =         0.0000
                                                    Density    =         0.0000
 DV/DL  =         4.8606
 ------------------------------------------------------------------------------

      A V E R A G E S   O V E R    1000 S T E P S

 NSTEP =     2000   TIME(PS) =     204.000  TEMP(K) =   299.92  PRESS =  -833.7
 Etot   =    -64168.7075  EKtot   =     12424.6490  EPtot      =    -76593.3566
 BOND   =         0.6737  ANGLE   =         4.5665  DIHED      =         5.2860
 1-4 NB =         0.4792  1-4 EEL =         0.0971  VDWAALS    =     14247.8889
 EELEC  =    -90852.3479  EHBOND  =         0.0000  RESTRAINT  =         0.0000
 EKCMT  =      6238.2260  VIRIAL  =     10299.4096  VOLUME     =    225530.5811
                                                    Density    =         0.9218
 DV/DL  =         5.4966
 ------------------------------------------------------------------------------

      R M S  F L U C T U A T I O N S

 NSTEP =     2000   TIME(PS) =     204.000  TEMP(K) =     1.76  PRESS =   141.3
 Etot   =        59.2708  EKtot   =        72.8201  EPtot      =        87.0563
 BOND   =         0.5936  ANGLE   =         0.8658  DIHED      =         0.0898
 1-4 NB =         0.2233  1-4 EEL =         0.0013  VDWAALS    =       124.0485
 EELEC  =       161.3661  EHBOND  =         0.0000  RESTRAINT  =         0.0000
 EKCMT  =        51.7299  VIRIAL  =       686.7248  VOLUME     =       964.6134
                                                    Density    =         0.0039
 DV/DL  =         7.7917
 ------------------------------------------------------------------------------

      A V E R A G E S   O V E R    1000 S T E P S

 NSTEP =     2000   TIME(PS) =     204.000  TEMP(K) =   299.92  PRESS =  -833.7
 Etot   =    -64168.7075  EKtot   =     12424.6490  EPtot      =    -76593.3566
 BOND   =         0.6737  ANGLE   =         4.5665  DIHED      =         5.2860
 1-4 NB =         0.4792  1-4 EEL =         0.0971  VDWAALS    =     14247.8889
 EELEC  =    -90852.3479  EHBOND  =         0.0000  RESTRAINT  =         0.0000
 EKCMT  =      6238.2260  VIRIAL  =     10299.4096  VOLUME     =    225530.5811
                                                    Density    =         0.9218
 DV/DL  =         5.4966
 ------------------------------------------------------------------------------

      R M S  F L U C T U A T I O N S

 NSTEP =     2000   TIME(PS) =     204.000  TEMP(K) =     1.76  PRESS =   141.3
 Etot   =        59.2708  EKtot   =        72.8201  EPtot      =        87.0563
 BOND   =         0.5936  ANGLE   =         0.8658  DIHED      =         0.0898
 1-4 NB =         0.2233  1-4 EEL =         0.0013  VDWAALS    =       124.0485
 EELEC  =       161.3661  EHBOND  =         0.0000  RESTRAINT  =         0.0000
 EKCMT  =        51.7299  VIRIAL  =       686.7248  VOLUME     =       964.6134
                                                    Density    =         0.0039
 DV/DL  =         7.7917
 ------------------------------------------------------------------------------

      DV/DL, AVERAGES OVER    1000 STEPS

 NSTEP =     2000   TIME(PS) =     204.000  TEMP(K) =     1.76  PRESS =     0.0
 Etot   =         0.0000  EKtot   =         0.0000  EPtot      =         5.4966
 BOND   =         0.0000  ANGLE   =         0.0000  DIHED      =         0.0000
 1-4 NB =         0.0000  1-4 EEL =       -10.5320  VDWAALS    =         0.0000
 EELEC  =        16.0286  EHBOND  =         0.0000  RESTRAINT  =         0.0000
 EKCMT  =         0.0000  VIRIAL  =         0.0000  VOLUME     =         0.0000
                                                    Density    =         0.0000
 DV/DL  =         5.4966
 ------------------------------------------------------------------------------

      A V E R A G E S   O V E R    1000 S T E P S

 NSTEP =   500000   TIME(PS) =    1200.000  TEMP(K) =   299.11  PRESS =   -28.1
 Etot   =    -64937.6285  EKtot   =     12391.3520  EPtot      =    -77328.9805
 BOND   =         0.8098  ANGLE   =         4.9523  DIHED      =         5.2498
 1-4 NB =         0.4594  1-4 EEL =         0.0970  VDWAALS    =     14596.3380
 EELEC  =    -91936.8868  EHBOND  =         0.0000  RESTRAINT  =         0.0000
 EKCMT  =      6205.6112  VIRIAL  =      6332.2994  VOLUME     =    208709.6661
                                                    Density    =         0.9961
 DV/DL  =         5.4544
 ------------------------------------------------------------------------------

      R M S  F L U C T U A T I O N S

 NSTEP =   500000   TIME(PS) =    1200.000  TEMP(K) =     1.90  PRESS =   127.8
 Etot   =       112.8924  EKtot   =        78.8539  EPtot      =        86.4340
 BOND   =         0.6029  ANGLE   =         1.0101  DIHED      =         0.0414
 1-4 NB =         0.2037  1-4 EEL =         0.0011  VDWAALS    =       120.1843
 EELEC  =       156.1214  EHBOND  =         0.0000  RESTRAINT  =         0.0000
 EKCMT  =        49.6102  VIRIAL  =       571.0272  VOLUME     =        53.9826
                                                    Density    =         0.0003
 DV/DL  =         7.1664
 ------------------------------------------------------------------------------

      A V E R A G E S   O V E R    1000 S T E P S

 NSTEP =   500000   TIME(PS) =    1200.000  TEMP(K) =   299.11  PRESS =   -28.1
 Etot   =    -64937.6285  EKtot   =     12391.3520  EPtot      =    -77328.9805
 BOND   =         0.8098  ANGLE   =         4.9523  DIHED      =         5.2498
 1-4 NB =         0.4594  1-4 EEL =         0.0970  VDWAALS    =     14596.3380
 EELEC  =    -91936.8868  EHBOND  =         0.0000  RESTRAINT  =         0.0000
 EKCMT  =      6205.6112  VIRIAL  =      6332.2994  VOLUME     =    208709.6661
                                                    Density    =         0.9961
 DV/DL  =         5.4544
 ------------------------------------------------------------------------------

      R M S  F L U C T U A T I O N S

 NSTEP =   500000   TIME(PS) =    1200.000  TEMP(K) =     1.90  PRESS =   127.8
 Etot   =       112.8924  EKtot   =        78.8539  EPtot      =        86.4340
 BOND   =         0.6029  ANGLE   =         1.0101  DIHED      =         0.0414
 1-4 NB =         0.2037  1-4 EEL =         0.0011  VDWAALS    =       120.1843
 EELEC  =       156.1214  EHBOND  =         0.0000  RESTRAINT  =         0.0000
 EKCMT  =        49.6102  VIRIAL  =       571.0272  VOLUME     =        53.9826
                                                    Density    =         0.0003
 DV/DL  =         7.1664
 ------------------------------------------------------------------------------

      DV/DL, AVERAGES OVER    1000 STEPS

 NSTEP =   500000   TIME(PS) =    1200.000  TEMP(K) =     1.90  PRESS =     0.0
 Etot   =         0.0000  EKtot   =         0.0000  EPtot      =         5.4544
 BOND   =         0.0000  ANGLE   =         0.0000  DIHED      =         0.0000
 1-4 NB =         0.0000  1-4 EEL =       -10.5221  VDWAALS    =         0.0000
 EELEC  =        15.9765  EHBOND  =         0.0000  RESTRAINT  =         0.0000
 EKCMT  =         0.0000  VIRIAL  =         0.0000  VOLUME     =         0.0000
                                                    Density    =         0.0000
 DV/DL  =         5.4544
 ------------------------------------------------------------------------------

      A V E R A G E S   O V E R  500000 S T E P S

 NSTEP =   500000   TIME(PS) =    1200.000  TEMP(K) =   300.28  PRESS =   -10.4
 Etot   =    -64831.2124  EKtot   =     12439.7807  EPtot      =    -77270.9931
 BOND   =         0.9405  ANGLE   =         5.2053  DIHED      =         5.2806
 1-4 NB =         0.5086  1-4 EEL =         0.0971  VDWAALS    =     14592.3604
 EELEC  =    -91875.3856  EHBOND  =         0.0000  RESTRAINT  =         0.0000
 EKCMT  =      6243.0290  VIRIAL  =      6292.6148  VOLUME     =    208872.7934
                                                    Density    =         0.9954
 DV/DL  =         8.4203
 ------------------------------------------------------------------------------

      R M S  F L U C T U A T I O N S

 NSTEP =   500000   TIME(PS) =    1200.000  TEMP(K) =     2.07  PRESS =   163.3
 Etot   =       171.2150  EKtot   =        85.7291  EPtot      =       150.3636
 BOND   =         0.7686  ANGLE   =         1.2197  DIHED      =         0.0892
 1-4 NB =         0.3079  1-4 EEL =         0.0016  VDWAALS    =       147.3840
 EELEC  =       247.3612  EHBOND  =         0.0000  RESTRAINT  =         0.0000
 EKCMT  =        61.3201  VIRIAL  =       746.3065  VOLUME     =      1594.5518
                                                    Density    =         0.0071
 DV/DL  =         8.6777
 ------------------------------------------------------------------------------

      A V E R A G E S   O V E R  500000 S T E P S

 NSTEP =   500000   TIME(PS) =    1200.000  TEMP(K) =   300.28  PRESS =   -10.4
 Etot   =    -64831.2124  EKtot   =     12439.7807  EPtot      =    -77270.9931
 BOND   =         0.9405  ANGLE   =         5.2053  DIHED      =         5.2806
 1-4 NB =         0.5086  1-4 EEL =         0.0971  VDWAALS    =     14592.3604
 EELEC  =    -91875.3856  EHBOND  =         0.0000  RESTRAINT  =         0.0000
 EKCMT  =      6243.0290  VIRIAL  =      6292.6148  VOLUME     =    208872.7934
                                                    Density    =         0.9954
 DV/DL  =         8.4203
 ------------------------------------------------------------------------------

      R M S  F L U C T U A T I O N S

 NSTEP =   500000   TIME(PS) =    1200.000  TEMP(K) =     2.07  PRESS =   163.3
 Etot   =       171.2150  EKtot   =        85.7291  EPtot      =       150.3636
 BOND   =         0.7686  ANGLE   =         1.2197  DIHED      =         0.0892
 1-4 NB =         0.3079  1-4 EEL =         0.0016  VDWAALS    =       147.3840
 EELEC  =       247.3612  EHBOND  =         0.0000  RESTRAINT  =         0.0000
 EKCMT  =        61.3201  VIRIAL  =       746.3065  VOLUME     =      1594.5518
                                                    Density    =         0.0071
 DV/DL  =         8.6777
 ------------------------------------------------------------------------------

      DV/DL, AVERAGES OVER  500000 STEPS

 NSTEP =   500000   TIME(PS) =    1200.000  TEMP(K) =     2.07  PRESS =     0.0
 Etot   =         0.0000  EKtot   =         0.0000  EPtot      =         8.4203
 BOND   =         0.0000  ANGLE   =         0.0000  DIHED      =         0.0000
 1-4 NB =         0.0000  1-4 EEL =       -10.5349  VDWAALS    =         0.0000
 EELEC  =        18.9552  EHBOND  =         0.0000  RESTRAINT  =         0.0000
 EKCMT  =         0.0000  VIRIAL  =         0.0000  VOLUME     =         0.0000
                                                    Density    =         0.0000
 DV/DL  =         8.4203
 ------------------------------------------------------------------------------
