-------------------------------------------------------
          Amber 18 PMEMD                              2018
          -------------------------------------------------------

  [-O]verwriting output

File Assignments:

 Here is the input file:

 &cntrl
   nstlim=500000, nscm=1000,
   ntx=5, irest=1, ntpr=1000,
   tempi=300.0, temp0=300.0, ntt=3, gamma_ln=2.0,
   ntp=1, pres0=1.01325, taup=5.0,
   ntb=2, igb=0, cut=10.0,
   dt=0.002, ig=-1,
   ntc=2, ntf=2,
   iwrap=0,
   ntwr=1000, ntwx=50000, ntave=1000,
   ioutfm=1, ntwv=-1,
   ifsc = 0, icfe=1,
   clambda=0.56262,
   timask1=':1',
   timask2=':2', crgmask = ':2',
/

Note: ig = -1. Setting random seed to   513435 based on wallclock time in
      microseconds.

--------------------------------------------------------------------------------
   1.  RESOURCE   USE:
--------------------------------------------------------------------------------

 getting box info from netcdf restart file
 NATOM  =   20852 NTYPES =       6 NBONH =   20844 MBONA  =       6
 NTHETH =      12 MTHETA =       6 NPHIH =      24 MPHIA  =       2
 NHPARM =       0 NPARM  =       0 NNB   =   27828 NRES   =    6948
 NBONA  =       6 NTHETA =       6 NPHIA =       2 NUMBND =       5
 NUMANG =       4 NPTRA  =       3 NATYP =       6 NPHB   =       1
 IFBOX  =       2 NMXRS  =       7 IFCAP =       0 NEXTRA =       0
 NCOPY  =       0

     BOX TYPE: TRUNCATED OCTAHEDRON

--------------------------------------------------------------------------------
   2.  CONTROL  DATA  FOR  THE  RUN
--------------------------------------------------------------------------------

default_name

General flags:
     imin    =       0, nmropt  =       0

Nature and format of input:
     ntx     =       5, irest   =       1, ntrx    =       1

Nature and format of output:
     ntxo    =       2, ntpr    =    1000, ntrx    =       1, ntwr    =    1000
     iwrap   =       0, ntwx    =   50000, ntwv    =      -1, ntwe    =       0
     ioutfm  =       1, ntwprt  =       0, idecomp =       0, rbornstat=      0

Potential function:
     ntf     =       2, ntb     =       2, igb     =       0, nsnb    =      25
     ipol    =       0, gbsa    =       0, iesp    =       0
     dielc   =   1.00000, cut     =  10.00000, intdiel =   1.00000

Frozen or restrained atoms:
     ibelly  =       0, ntr     =       0

Molecular dynamics:
     nstlim  =    500000, nscm    =      1000, nrespa  =         1
     t       =   0.00000, dt      =   0.00200, vlimit  =  -1.00000

Langevin dynamics temperature regulation:
     ig      =  513435
     temp0   = 300.00000, tempi   = 300.00000, gamma_ln=   2.00000

Pressure regulation:
     ntp     =       1
     pres0   =   1.01325, comp    =  44.60000, taup    =   5.00000

SHAKE:
     ntc     =       2, jfastw  =       0
     tol     =   0.00001

Free energy options:
     icfe    =       1, ifsc    =       0, klambda =       1
     clambda =  0.5626, scalpha =  0.5000, scbeta  = 12.0000
     sceeorder =       2
     dynlmb =  0.0000 logdvdl =       0

Ewald parameters:
     verbose =       0, ew_type =       0, nbflag  =       1, use_pme =       1
     vdwmeth =       1, eedmeth =       1, netfrc  =       1
     Box X =   66.953   Box Y =   66.953   Box Z =   66.953
     Alpha =  109.471   Beta  =  109.471   Gamma =  109.471
     NFFT1 =   64       NFFT2 =   64       NFFT3 =   64
     Cutoff=   10.000   Tol   =0.100E-04
     Ewald Coefficient =  0.27511
     Interpolation order =    4
     TI Mask 1 :1; matches      7 atoms
     TI Mask 2 :2; matches      7 atoms
     TI region 1:   20845 atoms
     TI region 2:   20845 atoms
Removing charge of      -0.8188 from atom       8
Removing charge of      -0.8188 from atom       9
Removing charge of       0.8054 from atom      10
Removing charge of      -0.1021 from atom      11
Removing charge of      -0.0219 from atom      12
Removing charge of      -0.0219 from atom      13
Removing charge of      -0.0219 from atom      14
Total charge of  -0.99999900 removed from       7 atoms
     Checking for mismatched coordinates.

--------------------------------------------------------------------------------
   3.  ATOMIC COORDINATES AND VELOCITIES
--------------------------------------------------------------------------------

default_name
 begin time read from input coords =   200.000 ps

 Number of triangulated 3-point waters found:     6946

     Sum of charges for TI region  1 =  -1.00000662
     Assuming uniform neutralizing plasma

     Sum of charges for TI region  2 =  -0.00000762
     Forcing neutrality...

--------------------------------------------------------------------------------
   4.  RESULTS
 NSTEP =     1000   TIME(PS) =     202.000  TEMP(K) =   302.80  PRESS =  -937.0
 Etot   =    -63965.8639  EKtot   =     12544.2960  EPtot      =    -76510.1598
 BOND   =         0.8996  ANGLE   =         5.4077  DIHED      =         5.3480
 1-4 NB =         0.3033  1-4 EEL =         4.5991  VDWAALS    =     14218.8215
 EELEC  =    -90745.5391  EHBOND  =         0.0000  RESTRAINT  =         0.0000
 EKCMT  =      6334.0006  VIRIAL  =     10914.3783  VOLUME     =    226400.3288
                                                    Density    =         0.9183
 DV/DL  =        76.7836
 ------------------------------------------------------------------------------

      A V E R A G E S   O V E R    1000 S T E P S

 NSTEP =     1000   TIME(PS) =     202.000  TEMP(K) =   301.46  PRESS = -1136.3
 Etot   =    -63641.9500  EKtot   =     12488.5964  EPtot      =    -76130.5464
 BOND   =         1.1042  ANGLE   =         4.9430  DIHED      =         5.2626
 1-4 NB =         0.3981  1-4 EEL =         4.5855  VDWAALS    =     13989.4327
 EELEC  =    -90136.2725  EHBOND  =         0.0000  RESTRAINT  =         0.0000
 EKCMT  =      6268.7795  VIRIAL  =     11880.2167  VOLUME     =    228634.3974
                                                    Density    =         0.9093
 DV/DL  =        70.3255
 ------------------------------------------------------------------------------

      R M S  F L U C T U A T I O N S

 NSTEP =     1000   TIME(PS) =     202.000  TEMP(K) =     1.80  PRESS =   146.8
 Etot   =       138.7005  EKtot   =        74.7317  EPtot      =       157.0401
 BOND   =         0.8125  ANGLE   =         1.0579  DIHED      =         0.0631
 1-4 NB =         0.1969  1-4 EEL =         0.0658  VDWAALS    =       152.6823
 EELEC  =       262.8565  EHBOND  =         0.0000  RESTRAINT  =         0.0000
 EKCMT  =        53.0957  VIRIAL  =       731.2586  VOLUME     =      1343.7402
                                                    Density    =         0.0053
 DV/DL  =         9.3276
 ------------------------------------------------------------------------------

      A V E R A G E S   O V E R    1000 S T E P S

 NSTEP =     1000   TIME(PS) =     202.000  TEMP(K) =   301.46  PRESS = -1136.3
 Etot   =    -63641.9500  EKtot   =     12488.5964  EPtot      =    -76130.5464
 BOND   =         1.1042  ANGLE   =         4.9430  DIHED      =         5.2626
 1-4 NB =         0.3981  1-4 EEL =         4.5855  VDWAALS    =     13989.4327
 EELEC  =    -90136.2725  EHBOND  =         0.0000  RESTRAINT  =         0.0000
 EKCMT  =      6268.7795  VIRIAL  =     11880.2167  VOLUME     =    228634.3974
                                                    Density    =         0.9093
 DV/DL  =        70.3255
 ------------------------------------------------------------------------------

      R M S  F L U C T U A T I O N S

 NSTEP =     1000   TIME(PS) =     202.000  TEMP(K) =     1.80  PRESS =   146.8
 Etot   =       138.7005  EKtot   =        74.7317  EPtot      =       157.0401
 BOND   =         0.8125  ANGLE   =         1.0579  DIHED      =         0.0631
 1-4 NB =         0.1969  1-4 EEL =         0.0658  VDWAALS    =       152.6823
 EELEC  =       262.8565  EHBOND  =         0.0000  RESTRAINT  =         0.0000
 EKCMT  =        53.0957  VIRIAL  =       731.2586  VOLUME     =      1343.7402
                                                    Density    =         0.0053
 DV/DL  =         9.3276
 ------------------------------------------------------------------------------

      DV/DL, AVERAGES OVER    1000 STEPS

 NSTEP =     1000   TIME(PS) =     202.000  TEMP(K) =     1.80  PRESS =     0.0
 Etot   =         0.0000  EKtot   =         0.0000  EPtot      =        70.3255
 BOND   =         0.0000  ANGLE   =         0.0000  DIHED      =         0.0000
 1-4 NB =         0.0000  1-4 EEL =       -10.4841  VDWAALS    =         0.0000
 EELEC  =        80.8096  EHBOND  =         0.0000  RESTRAINT  =         0.0000
 EKCMT  =         0.0000  VIRIAL  =         0.0000  VOLUME     =         0.0000
                                                    Density    =         0.0000
 DV/DL  =        70.3255
 ------------------------------------------------------------------------------

      A V E R A G E S   O V E R    1000 S T E P S

 NSTEP =     2000   TIME(PS) =     204.000  TEMP(K) =   301.24  PRESS =  -914.5
 Etot   =    -63961.0772  EKtot   =     12479.5050  EPtot      =    -76440.5822
 BOND   =         0.9287  ANGLE   =         4.4061  DIHED      =         5.2523
 1-4 NB =         0.3867  1-4 EEL =         4.5802  VDWAALS    =     14130.8643
 EELEC  =    -90587.0006  EHBOND  =         0.0000  RESTRAINT  =         0.0000
 EKCMT  =      6273.5846  VIRIAL  =     10707.4097  VOLUME     =    224536.0001
                                                    Density    =         0.9259
 DV/DL  =        66.8311
 ------------------------------------------------------------------------------

      R M S  F L U C T U A T I O N S

 NSTEP =     2000   TIME(PS) =     204.000  TEMP(K) =     1.74  PRESS =   133.5
 Etot   =        64.6500  EKtot   =        72.1008  EPtot      =        81.2711
 BOND   =         0.6677  ANGLE   =         0.8491  DIHED      =         0.0494
 1-4 NB =         0.1934  1-4 EEL =         0.0672  VDWAALS    =       141.1401
 EELEC  =       171.0283  EHBOND  =         0.0000  RESTRAINT  =         0.0000
 EKCMT  =        57.0132  VIRIAL  =       640.6205  VOLUME     =      1044.9358
                                                    Density    =         0.0043
 DV/DL  =         9.6559
 ------------------------------------------------------------------------------

      A V E R A G E S   O V E R    1000 S T E P S

 NSTEP =     2000   TIME(PS) =     204.000  TEMP(K) =   301.24  PRESS =  -914.5
 Etot   =    -63961.0772  EKtot   =     12479.5050  EPtot      =    -76440.5822
 BOND   =         0.9287  ANGLE   =         4.4061  DIHED      =         5.2523
 1-4 NB =         0.3867  1-4 EEL =         4.5802  VDWAALS    =     14130.8643
 EELEC  =    -90587.0006  EHBOND  =         0.0000  RESTRAINT  =         0.0000
 EKCMT  =      6273.5846  VIRIAL  =     10707.4097  VOLUME     =    224536.0001
                                                    Density    =         0.9259
 DV/DL  =        66.8311
 ------------------------------------------------------------------------------

      R M S  F L U C T U A T I O N S

 NSTEP =     2000   TIME(PS) =     204.000  TEMP(K) =     1.74  PRESS =   133.5
 Etot   =        64.6500  EKtot   =        72.1008  EPtot      =        81.2711
 BOND   =         0.6677  ANGLE   =         0.8491  DIHED      =         0.0494
 1-4 NB =         0.1934  1-4 EEL =         0.0672  VDWAALS    =       141.1401
 EELEC  =       171.0283  EHBOND  =         0.0000  RESTRAINT  =         0.0000
 EKCMT  =        57.0132  VIRIAL  =       640.6205  VOLUME     =      1044.9358
                                                    Density    =         0.0043
 DV/DL  =         9.6559
 ------------------------------------------------------------------------------

      DV/DL, AVERAGES OVER    1000 STEPS

 NSTEP =     2000   TIME(PS) =     204.000  TEMP(K) =     1.74  PRESS =     0.0
 Etot   =         0.0000  EKtot   =         0.0000  EPtot      =        66.8311
 BOND   =         0.0000  ANGLE   =         0.0000  DIHED      =         0.0000
 1-4 NB =         0.0000  1-4 EEL =       -10.4718  VDWAALS    =         0.0000
 EELEC  =        77.3029  EHBOND  =         0.0000  RESTRAINT  =         0.0000
 EKCMT  =         0.0000  VIRIAL  =         0.0000  VOLUME     =         0.0000
                                                    Density    =         0.0000
 DV/DL  =        66.8311
 ------------------------------------------------------------------------------

      A V E R A G E S   O V E R    1000 S T E P S

 NSTEP =   500000   TIME(PS) =    1200.000  TEMP(K) =   299.87  PRESS =   -85.7
 Etot   =    -64921.8361  EKtot   =     12422.7641  EPtot      =    -77344.6002
 BOND   =         1.3256  ANGLE   =         5.3024  DIHED      =         5.2775
 1-4 NB =         0.4274  1-4 EEL =         4.5852  VDWAALS    =     14494.5066
 EELEC  =    -91856.0250  EHBOND  =         0.0000  RESTRAINT  =         0.0000
 EKCMT  =      6248.7655  VIRIAL  =      6633.8633  VOLUME     =    208032.5813
                                                    Density    =         0.9994
 DV/DL  =        74.1390
 ------------------------------------------------------------------------------

      R M S  F L U C T U A T I O N S

 NSTEP =   500000   TIME(PS) =    1200.000  TEMP(K) =     1.51  PRESS =   132.3
 Etot   =        93.2842  EKtot   =        62.7001  EPtot      =        96.8471
 BOND   =         0.9996  ANGLE   =         1.3040  DIHED      =         0.0739
 1-4 NB =         0.2647  1-4 EEL =         0.0796  VDWAALS    =       138.0849
 EELEC  =       200.1623  EHBOND  =         0.0000  RESTRAINT  =         0.0000
 EKCMT  =        45.3892  VIRIAL  =       605.2362  VOLUME     =       120.8029
                                                    Density    =         0.0006
 DV/DL  =        10.4412
 ------------------------------------------------------------------------------

      A V E R A G E S   O V E R    1000 S T E P S

 NSTEP =   500000   TIME(PS) =    1200.000  TEMP(K) =   299.87  PRESS =   -85.7
 Etot   =    -64921.8361  EKtot   =     12422.7641  EPtot      =    -77344.6002
 BOND   =         1.3256  ANGLE   =         5.3024  DIHED      =         5.2775
 1-4 NB =         0.4274  1-4 EEL =         4.5852  VDWAALS    =     14494.5066
 EELEC  =    -91856.0250  EHBOND  =         0.0000  RESTRAINT  =         0.0000
 EKCMT  =      6248.7655  VIRIAL  =      6633.8633  VOLUME     =    208032.5813
                                                    Density    =         0.9994
 DV/DL  =        74.1390
 ------------------------------------------------------------------------------

      R M S  F L U C T U A T I O N S

 NSTEP =   500000   TIME(PS) =    1200.000  TEMP(K) =     1.51  PRESS =   132.3
 Etot   =        93.2842  EKtot   =        62.7001  EPtot      =        96.8471
 BOND   =         0.9996  ANGLE   =         1.3040  DIHED      =         0.0739
 1-4 NB =         0.2647  1-4 EEL =         0.0796  VDWAALS    =       138.0849
 EELEC  =       200.1623  EHBOND  =         0.0000  RESTRAINT  =         0.0000
 EKCMT  =        45.3892  VIRIAL  =       605.2362  VOLUME     =       120.8029
                                                    Density    =         0.0006
 DV/DL  =        10.4412
 ------------------------------------------------------------------------------

      DV/DL, AVERAGES OVER    1000 STEPS

 NSTEP =   500000   TIME(PS) =    1200.000  TEMP(K) =     1.51  PRESS =     0.0
 Etot   =         0.0000  EKtot   =         0.0000  EPtot      =        74.1390
 BOND   =         0.0000  ANGLE   =         0.0000  DIHED      =         0.0000
 1-4 NB =         0.0000  1-4 EEL =       -10.4834  VDWAALS    =         0.0000
 EELEC  =        84.6224  EHBOND  =         0.0000  RESTRAINT  =         0.0000
 EKCMT  =         0.0000  VIRIAL  =         0.0000  VOLUME     =         0.0000
                                                    Density    =         0.0000
 DV/DL  =        74.1390
 ------------------------------------------------------------------------------

      A V E R A G E S   O V E R  500000 S T E P S

 NSTEP =   500000   TIME(PS) =    1200.000  TEMP(K) =   300.18  PRESS =   -10.8
 Etot   =    -64863.1743  EKtot   =     12435.6778  EPtot      =    -77298.8521
 BOND   =         0.9619  ANGLE   =         5.2009  DIHED      =         5.2803
 1-4 NB =         0.4237  1-4 EEL =         4.5852  VDWAALS    =     14600.7078
 EELEC  =    -91916.0119  EHBOND  =         0.0000  RESTRAINT  =         0.0000
 EKCMT  =      6242.2913  VIRIAL  =      6293.7652  VOLUME     =    208855.8044
                                                    Density    =         0.9955
 DV/DL  =        74.7667
 ------------------------------------------------------------------------------

      R M S  F L U C T U A T I O N S

 NSTEP =   500000   TIME(PS) =    1200.000  TEMP(K) =     2.07  PRESS =   163.5
 Etot   =       178.9508  EKtot   =        85.7176  EPtot      =       154.8402
 BOND   =         0.7809  ANGLE   =         1.2105  DIHED      =         0.0901
 1-4 NB =         0.2471  1-4 EEL =         0.0745  VDWAALS    =       147.3406
 EELEC  =       252.9497  EHBOND  =         0.0000  RESTRAINT  =         0.0000
 EKCMT  =        61.6679  VIRIAL  =       750.2354  VOLUME     =      1508.7103
                                                    Density    =         0.0067
 DV/DL  =        11.2585
 ------------------------------------------------------------------------------

      A V E R A G E S   O V E R  500000 S T E P S

 NSTEP =   500000   TIME(PS) =    1200.000  TEMP(K) =   300.18  PRESS =   -10.8
 Etot   =    -64863.1743  EKtot   =     12435.6778  EPtot      =    -77298.8521
 BOND   =         0.9619  ANGLE   =         5.2009  DIHED      =         5.2803
 1-4 NB =         0.4237  1-4 EEL =         4.5852  VDWAALS    =     14600.7078
 EELEC  =    -91916.0119  EHBOND  =         0.0000  RESTRAINT  =         0.0000
 EKCMT  =      6242.2913  VIRIAL  =      6293.7652  VOLUME     =    208855.8044
                                                    Density    =         0.9955
 DV/DL  =        74.7667
 ------------------------------------------------------------------------------

      R M S  F L U C T U A T I O N S

 NSTEP =   500000   TIME(PS) =    1200.000  TEMP(K) =     2.07  PRESS =   163.5
 Etot   =       178.9508  EKtot   =        85.7176  EPtot      =       154.8402
 BOND   =         0.7809  ANGLE   =         1.2105  DIHED      =         0.0901
 1-4 NB =         0.2471  1-4 EEL =         0.0745  VDWAALS    =       147.3406
 EELEC  =       252.9497  EHBOND  =         0.0000  RESTRAINT  =         0.0000
 EKCMT  =        61.6679  VIRIAL  =       750.2354  VOLUME     =      1508.7103
                                                    Density    =         0.0067
 DV/DL  =        11.2585
 ------------------------------------------------------------------------------

      DV/DL, AVERAGES OVER  500000 STEPS

 NSTEP =   500000   TIME(PS) =    1200.000  TEMP(K) =     2.07  PRESS =     0.0
 Etot   =         0.0000  EKtot   =         0.0000  EPtot      =        74.7667
 BOND   =         0.0000  ANGLE   =         0.0000  DIHED      =         0.0000
 1-4 NB =         0.0000  1-4 EEL =       -10.4834  VDWAALS    =         0.0000
 EELEC  =        85.2501  EHBOND  =         0.0000  RESTRAINT  =         0.0000
 EKCMT  =         0.0000  VIRIAL  =         0.0000  VOLUME     =         0.0000
                                                    Density    =         0.0000
 DV/DL  =        74.7667
 ------------------------------------------------------------------------------
