-------------------------------------------------------
          Amber 18 PMEMD                              2018
          -------------------------------------------------------

  [-O]verwriting output

File Assignments:

 Here is the input file:

 &cntrl
   nstlim=500000, nscm=1000,
   ntx=5, irest=1, ntpr=1000,
   tempi=300.0, temp0=300.0, ntt=3, gamma_ln=2.0,
   ntp=1, pres0=1.01325, taup=5.0,
   ntb=2, igb=0, cut=10.0,
   dt=0.002, ig=-1,
   ntc=2, ntf=2,
   iwrap=0,
   ntwr=1000, ntwx=50000, ntave=1000,
   ioutfm=1, ntwv=-1,
   ifsc = 0, icfe=1,
   clambda=0.20634,
   timask1=':1',
   timask2=':2', crgmask = ':2',
/

Note: ig = -1. Setting random seed to   691296 based on wallclock time in
      microseconds.

--------------------------------------------------------------------------------
   1.  RESOURCE   USE:
--------------------------------------------------------------------------------

 getting box info from netcdf restart file
 NATOM  =   20852 NTYPES =       6 NBONH =   20844 MBONA  =       6
 NTHETH =      12 MTHETA =       6 NPHIH =      24 MPHIA  =       2
 NHPARM =       0 NPARM  =       0 NNB   =   27828 NRES   =    6948
 NBONA  =       6 NTHETA =       6 NPHIA =       2 NUMBND =       5
 NUMANG =       4 NPTRA  =       3 NATYP =       6 NPHB   =       1
 IFBOX  =       2 NMXRS  =       7 IFCAP =       0 NEXTRA =       0
 NCOPY  =       0

     BOX TYPE: TRUNCATED OCTAHEDRON

--------------------------------------------------------------------------------
   2.  CONTROL  DATA  FOR  THE  RUN
--------------------------------------------------------------------------------

default_name

General flags:
     imin    =       0, nmropt  =       0

Nature and format of input:
     ntx     =       5, irest   =       1, ntrx    =       1

Nature and format of output:
     ntxo    =       2, ntpr    =    1000, ntrx    =       1, ntwr    =    1000
     iwrap   =       0, ntwx    =   50000, ntwv    =      -1, ntwe    =       0
     ioutfm  =       1, ntwprt  =       0, idecomp =       0, rbornstat=      0

Potential function:
     ntf     =       2, ntb     =       2, igb     =       0, nsnb    =      25
     ipol    =       0, gbsa    =       0, iesp    =       0
     dielc   =   1.00000, cut     =  10.00000, intdiel =   1.00000

Frozen or restrained atoms:
     ibelly  =       0, ntr     =       0

Molecular dynamics:
     nstlim  =    500000, nscm    =      1000, nrespa  =         1
     t       =   0.00000, dt      =   0.00200, vlimit  =  -1.00000

Langevin dynamics temperature regulation:
     ig      =  691296
     temp0   = 300.00000, tempi   = 300.00000, gamma_ln=   2.00000

Pressure regulation:
     ntp     =       1
     pres0   =   1.01325, comp    =  44.60000, taup    =   5.00000

SHAKE:
     ntc     =       2, jfastw  =       0
     tol     =   0.00001

Free energy options:
     icfe    =       1, ifsc    =       0, klambda =       1
     clambda =  0.2063, scalpha =  0.5000, scbeta  = 12.0000
     sceeorder =       2
     dynlmb =  0.0000 logdvdl =       0

Ewald parameters:
     verbose =       0, ew_type =       0, nbflag  =       1, use_pme =       1
     vdwmeth =       1, eedmeth =       1, netfrc  =       1
     Box X =   66.953   Box Y =   66.953   Box Z =   66.953
     Alpha =  109.471   Beta  =  109.471   Gamma =  109.471
     NFFT1 =   64       NFFT2 =   64       NFFT3 =   64
     Cutoff=   10.000   Tol   =0.100E-04
     Ewald Coefficient =  0.27511
     Interpolation order =    4
     TI Mask 1 :1; matches      7 atoms
     TI Mask 2 :2; matches      7 atoms
     TI region 1:   20845 atoms
     TI region 2:   20845 atoms
Removing charge of      -0.8188 from atom       8
Removing charge of      -0.8188 from atom       9
Removing charge of       0.8054 from atom      10
Removing charge of      -0.1021 from atom      11
Removing charge of      -0.0219 from atom      12
Removing charge of      -0.0219 from atom      13
Removing charge of      -0.0219 from atom      14
Total charge of  -0.99999900 removed from       7 atoms
     Checking for mismatched coordinates.

--------------------------------------------------------------------------------
   3.  ATOMIC COORDINATES AND VELOCITIES
--------------------------------------------------------------------------------

default_name
 begin time read from input coords =   200.000 ps

 Number of triangulated 3-point waters found:     6946

     Sum of charges for TI region  1 =  -1.00000662
     Assuming uniform neutralizing plasma

     Sum of charges for TI region  2 =  -0.00000762
     Forcing neutrality...

--------------------------------------------------------------------------------
   4.  RESULTS
 NSTEP =     1000   TIME(PS) =     202.000  TEMP(K) =   303.19  PRESS =  -719.7
 Etot   =    -64013.5470  EKtot   =     12560.3810  EPtot      =    -76573.9280
 BOND   =         0.2340  ANGLE   =         4.9884  DIHED      =         5.2393
 1-4 NB =         0.5290  1-4 EEL =         8.4381  VDWAALS    =     14353.2463
 EELEC  =    -90946.6031  EHBOND  =         0.0000  RESTRAINT  =         0.0000
 EKCMT  =      6411.8401  VIRIAL  =      9941.9486  VOLUME     =    227178.8015
                                                    Density    =         0.9151
 DV/DL  =       143.8368
 ------------------------------------------------------------------------------

      A V E R A G E S   O V E R    1000 S T E P S

 NSTEP =     1000   TIME(PS) =     202.000  TEMP(K) =   301.65  PRESS =  -943.7
 Etot   =    -63922.8606  EKtot   =     12496.2849  EPtot      =    -76419.1455
 BOND   =         1.2686  ANGLE   =         5.3261  DIHED      =         5.2894
 1-4 NB =         0.3735  1-4 EEL =         8.2862  VDWAALS    =     14195.2794
 EELEC  =    -90634.9688  EHBOND  =         0.0000  RESTRAINT  =         0.0000
 EKCMT  =      6277.1642  VIRIAL  =     10945.3798  VOLUME     =    228986.2422
                                                    Density    =         0.9079
 DV/DL  =       138.4089
 ------------------------------------------------------------------------------

      R M S  F L U C T U A T I O N S

 NSTEP =     1000   TIME(PS) =     202.000  TEMP(K) =     1.71  PRESS =   150.8
 Etot   =       147.6635  EKtot   =        70.8719  EPtot      =       152.8671
 BOND   =         0.8274  ANGLE   =         1.2303  DIHED      =         0.0923
 1-4 NB =         0.2212  1-4 EEL =         0.1468  VDWAALS    =       149.3150
 EELEC  =       265.5624  EHBOND  =         0.0000  RESTRAINT  =         0.0000
 EKCMT  =        49.7376  VIRIAL  =       759.9823  VOLUME     =      1120.5007
                                                    Density    =         0.0044
 DV/DL  =         8.0984
 ------------------------------------------------------------------------------

      A V E R A G E S   O V E R    1000 S T E P S

 NSTEP =     1000   TIME(PS) =     202.000  TEMP(K) =   301.65  PRESS =  -943.7
 Etot   =    -63922.8606  EKtot   =     12496.2849  EPtot      =    -76419.1455
 BOND   =         1.2686  ANGLE   =         5.3261  DIHED      =         5.2894
 1-4 NB =         0.3735  1-4 EEL =         8.2862  VDWAALS    =     14195.2794
 EELEC  =    -90634.9688  EHBOND  =         0.0000  RESTRAINT  =         0.0000
 EKCMT  =      6277.1642  VIRIAL  =     10945.3798  VOLUME     =    228986.2422
                                                    Density    =         0.9079
 DV/DL  =       138.4089
 ------------------------------------------------------------------------------

      R M S  F L U C T U A T I O N S

 NSTEP =     1000   TIME(PS) =     202.000  TEMP(K) =     1.71  PRESS =   150.8
 Etot   =       147.6635  EKtot   =        70.8719  EPtot      =       152.8671
 BOND   =         0.8274  ANGLE   =         1.2303  DIHED      =         0.0923
 1-4 NB =         0.2212  1-4 EEL =         0.1468  VDWAALS    =       149.3150
 EELEC  =       265.5624  EHBOND  =         0.0000  RESTRAINT  =         0.0000
 EKCMT  =        49.7376  VIRIAL  =       759.9823  VOLUME     =      1120.5007
                                                    Density    =         0.0044
 DV/DL  =         8.0984
 ------------------------------------------------------------------------------

      DV/DL, AVERAGES OVER    1000 STEPS

 NSTEP =     1000   TIME(PS) =     202.000  TEMP(K) =     1.71  PRESS =     0.0
 Etot   =         0.0000  EKtot   =         0.0000  EPtot      =       138.4089
 BOND   =         0.0000  ANGLE   =         0.0000  DIHED      =         0.0000
 1-4 NB =         0.0000  1-4 EEL =       -10.4406  VDWAALS    =         0.0000
 EELEC  =       148.8494  EHBOND  =         0.0000  RESTRAINT  =         0.0000
 EKCMT  =         0.0000  VIRIAL  =         0.0000  VOLUME     =         0.0000
                                                    Density    =         0.0000
 DV/DL  =       138.4089
 ------------------------------------------------------------------------------

      A V E R A G E S   O V E R    1000 S T E P S

 NSTEP =     2000   TIME(PS) =     204.000  TEMP(K) =   301.96  PRESS =  -741.1
 Etot   =    -64056.7241  EKtot   =     12509.3515  EPtot      =    -76566.0756
 BOND   =         0.9978  ANGLE   =         5.1411  DIHED      =         5.2855
 1-4 NB =         0.3761  1-4 EEL =         8.2891  VDWAALS    =     14301.9658
 EELEC  =    -90888.1311  EHBOND  =         0.0000  RESTRAINT  =         0.0000
 EKCMT  =      6276.0975  VIRIAL  =      9887.1546  VOLUME     =    225656.8442
                                                    Density    =         0.9213
 DV/DL  =       139.6976
 ------------------------------------------------------------------------------

      R M S  F L U C T U A T I O N S

 NSTEP =     2000   TIME(PS) =     204.000  TEMP(K) =     2.02  PRESS =   119.7
 Etot   =       136.5723  EKtot   =        83.6586  EPtot      =       103.3320
 BOND   =         0.7513  ANGLE   =         1.0893  DIHED      =         0.0791
 1-4 NB =         0.2124  1-4 EEL =         0.1352  VDWAALS    =       140.7067
 EELEC  =       205.8819  EHBOND  =         0.0000  RESTRAINT  =         0.0000
 EKCMT  =        50.8223  VIRIAL  =       587.9008  VOLUME     =       864.5860
                                                    Density    =         0.0035
 DV/DL  =         8.4398
 ------------------------------------------------------------------------------

      A V E R A G E S   O V E R    1000 S T E P S

 NSTEP =     2000   TIME(PS) =     204.000  TEMP(K) =   301.96  PRESS =  -741.1
 Etot   =    -64056.7241  EKtot   =     12509.3515  EPtot      =    -76566.0756
 BOND   =         0.9978  ANGLE   =         5.1411  DIHED      =         5.2855
 1-4 NB =         0.3761  1-4 EEL =         8.2891  VDWAALS    =     14301.9658
 EELEC  =    -90888.1311  EHBOND  =         0.0000  RESTRAINT  =         0.0000
 EKCMT  =      6276.0975  VIRIAL  =      9887.1546  VOLUME     =    225656.8442
                                                    Density    =         0.9213
 DV/DL  =       139.6976
 ------------------------------------------------------------------------------

      R M S  F L U C T U A T I O N S

 NSTEP =     2000   TIME(PS) =     204.000  TEMP(K) =     2.02  PRESS =   119.7
 Etot   =       136.5723  EKtot   =        83.6586  EPtot      =       103.3320
 BOND   =         0.7513  ANGLE   =         1.0893  DIHED      =         0.0791
 1-4 NB =         0.2124  1-4 EEL =         0.1352  VDWAALS    =       140.7067
 EELEC  =       205.8819  EHBOND  =         0.0000  RESTRAINT  =         0.0000
 EKCMT  =        50.8223  VIRIAL  =       587.9008  VOLUME     =       864.5860
                                                    Density    =         0.0035
 DV/DL  =         8.4398
 ------------------------------------------------------------------------------

      DV/DL, AVERAGES OVER    1000 STEPS

 NSTEP =     2000   TIME(PS) =     204.000  TEMP(K) =     2.02  PRESS =     0.0
 Etot   =         0.0000  EKtot   =         0.0000  EPtot      =       139.6976
 BOND   =         0.0000  ANGLE   =         0.0000  DIHED      =         0.0000
 1-4 NB =         0.0000  1-4 EEL =       -10.4441  VDWAALS    =         0.0000
 EELEC  =       150.1417  EHBOND  =         0.0000  RESTRAINT  =         0.0000
 EKCMT  =         0.0000  VIRIAL  =         0.0000  VOLUME     =         0.0000
                                                    Density    =         0.0000
 DV/DL  =       139.6976
 ------------------------------------------------------------------------------

      A V E R A G E S   O V E R    1000 S T E P S

 NSTEP =   500000   TIME(PS) =    1200.000  TEMP(K) =   300.53  PRESS =    27.3
 Etot   =    -64901.4283  EKtot   =     12449.9256  EPtot      =    -77351.3540
 BOND   =         0.9799  ANGLE   =         5.3438  DIHED      =         5.3164
 1-4 NB =         0.3818  1-4 EEL =         8.2936  VDWAALS    =     14621.9380
 EELEC  =    -91993.6075  EHBOND  =         0.0000  RESTRAINT  =         0.0000
 EKCMT  =      6245.8861  VIRIAL  =      6123.1901  VOLUME     =    208492.6201
                                                    Density    =         0.9972
 DV/DL  =       140.4006
 ------------------------------------------------------------------------------

      R M S  F L U C T U A T I O N S

 NSTEP =   500000   TIME(PS) =    1200.000  TEMP(K) =     1.71  PRESS =   129.7
 Etot   =        74.5340  EKtot   =        71.0402  EPtot      =        75.0145
 BOND   =         0.7052  ANGLE   =         1.2333  DIHED      =         0.1311
 1-4 NB =         0.2346  1-4 EEL =         0.1420  VDWAALS    =       125.6164
 EELEC  =       160.8818  EHBOND  =         0.0000  RESTRAINT  =         0.0000
 EKCMT  =        53.5348  VIRIAL  =       588.5958  VOLUME     =        50.2056
                                                    Density    =         0.0002
 DV/DL  =         9.6024
 ------------------------------------------------------------------------------

      A V E R A G E S   O V E R    1000 S T E P S

 NSTEP =   500000   TIME(PS) =    1200.000  TEMP(K) =   300.53  PRESS =    27.3
 Etot   =    -64901.4283  EKtot   =     12449.9256  EPtot      =    -77351.3540
 BOND   =         0.9799  ANGLE   =         5.3438  DIHED      =         5.3164
 1-4 NB =         0.3818  1-4 EEL =         8.2936  VDWAALS    =     14621.9380
 EELEC  =    -91993.6075  EHBOND  =         0.0000  RESTRAINT  =         0.0000
 EKCMT  =      6245.8861  VIRIAL  =      6123.1901  VOLUME     =    208492.6201
                                                    Density    =         0.9972
 DV/DL  =       140.4006
 ------------------------------------------------------------------------------

      R M S  F L U C T U A T I O N S

 NSTEP =   500000   TIME(PS) =    1200.000  TEMP(K) =     1.71  PRESS =   129.7
 Etot   =        74.5340  EKtot   =        71.0402  EPtot      =        75.0145
 BOND   =         0.7052  ANGLE   =         1.2333  DIHED      =         0.1311
 1-4 NB =         0.2346  1-4 EEL =         0.1420  VDWAALS    =       125.6164
 EELEC  =       160.8818  EHBOND  =         0.0000  RESTRAINT  =         0.0000
 EKCMT  =        53.5348  VIRIAL  =       588.5958  VOLUME     =        50.2056
                                                    Density    =         0.0002
 DV/DL  =         9.6024
 ------------------------------------------------------------------------------

      DV/DL, AVERAGES OVER    1000 STEPS

 NSTEP =   500000   TIME(PS) =    1200.000  TEMP(K) =     1.71  PRESS =     0.0
 Etot   =         0.0000  EKtot   =         0.0000  EPtot      =       140.4006
 BOND   =         0.0000  ANGLE   =         0.0000  DIHED      =         0.0000
 1-4 NB =         0.0000  1-4 EEL =       -10.4498  VDWAALS    =         0.0000
 EELEC  =       150.8504  EHBOND  =         0.0000  RESTRAINT  =         0.0000
 EKCMT  =         0.0000  VIRIAL  =         0.0000  VOLUME     =         0.0000
                                                    Density    =         0.0000
 DV/DL  =       140.4006
 ------------------------------------------------------------------------------

      A V E R A G E S   O V E R  500000 S T E P S

 NSTEP =   500000   TIME(PS) =    1200.000  TEMP(K) =   300.01  PRESS =   -10.5
 Etot   =    -64942.6308  EKtot   =     12428.5634  EPtot      =    -77371.1941
 BOND   =         0.9490  ANGLE   =         5.2633  DIHED      =         5.2842
 1-4 NB =         0.3673  1-4 EEL =         8.2902  VDWAALS    =     14616.1669
 EELEC  =    -92007.5149  EHBOND  =         0.0000  RESTRAINT  =         0.0000
 EKCMT  =      6235.7432  VIRIAL  =      6285.6105  VOLUME     =    208775.6149
                                                    Density    =         0.9959
 DV/DL  =       140.6579
 ------------------------------------------------------------------------------

      R M S  F L U C T U A T I O N S

 NSTEP =   500000   TIME(PS) =    1200.000  TEMP(K) =     2.05  PRESS =   160.2
 Etot   =       172.6366  EKtot   =        84.8352  EPtot      =       150.4537
 BOND   =         0.7760  ANGLE   =         1.2474  DIHED      =         0.0943
 1-4 NB =         0.2128  1-4 EEL =         0.1300  VDWAALS    =       144.7377
 EELEC  =       244.1442  EHBOND  =         0.0000  RESTRAINT  =         0.0000
 EKCMT  =        60.2238  VIRIAL  =       733.4728  VOLUME     =      1660.6930
                                                    Density    =         0.0074
 DV/DL  =        10.6325
 ------------------------------------------------------------------------------

      A V E R A G E S   O V E R  500000 S T E P S

 NSTEP =   500000   TIME(PS) =    1200.000  TEMP(K) =   300.01  PRESS =   -10.5
 Etot   =    -64942.6308  EKtot   =     12428.5634  EPtot      =    -77371.1941
 BOND   =         0.9490  ANGLE   =         5.2633  DIHED      =         5.2842
 1-4 NB =         0.3673  1-4 EEL =         8.2902  VDWAALS    =     14616.1669
 EELEC  =    -92007.5149  EHBOND  =         0.0000  RESTRAINT  =         0.0000
 EKCMT  =      6235.7432  VIRIAL  =      6285.6105  VOLUME     =    208775.6149
                                                    Density    =         0.9959
 DV/DL  =       140.6579
 ------------------------------------------------------------------------------

      R M S  F L U C T U A T I O N S

 NSTEP =   500000   TIME(PS) =    1200.000  TEMP(K) =     2.05  PRESS =   160.2
 Etot   =       172.6366  EKtot   =        84.8352  EPtot      =       150.4537
 BOND   =         0.7760  ANGLE   =         1.2474  DIHED      =         0.0943
 1-4 NB =         0.2128  1-4 EEL =         0.1300  VDWAALS    =       144.7377
 EELEC  =       244.1442  EHBOND  =         0.0000  RESTRAINT  =         0.0000
 EKCMT  =        60.2238  VIRIAL  =       733.4728  VOLUME     =      1660.6930
                                                    Density    =         0.0074
 DV/DL  =        10.6325
 ------------------------------------------------------------------------------

      DV/DL, AVERAGES OVER  500000 STEPS

 NSTEP =   500000   TIME(PS) =    1200.000  TEMP(K) =     2.05  PRESS =     0.0
 Etot   =         0.0000  EKtot   =         0.0000  EPtot      =       140.6579
 BOND   =         0.0000  ANGLE   =         0.0000  DIHED      =         0.0000
 1-4 NB =         0.0000  1-4 EEL =       -10.4455  VDWAALS    =         0.0000
 EELEC  =       151.1034  EHBOND  =         0.0000  RESTRAINT  =         0.0000
 EKCMT  =         0.0000  VIRIAL  =         0.0000  VOLUME     =         0.0000
                                                    Density    =         0.0000
 DV/DL  =       140.6579
 ------------------------------------------------------------------------------
