-------------------------------------------------------
          Amber 18 PMEMD                              2018
          -------------------------------------------------------

  [-O]verwriting output

File Assignments:

 Here is the input file:

 &cntrl
   nstlim=500000, nscm=1000,
   ntx=5, irest=1, ntpr=1000,
   tempi=300.0, temp0=300.0, ntt=3, gamma_ln=2.0,
   ntp=1, pres0=1.01325, taup=5.0,
   ntb=2, igb=0, cut=10.0,
   dt=0.002, ig=-1,
   ntc=2, ntf=2,
   iwrap=0,
   ntwr=1000, ntwx=50000, ntave=1000,
   ioutfm=1, ntwv=-1,
   ifsc = 0, icfe=1,
   clambda=0.04794,
   timask1=':1',
   timask2=':2', crgmask = ':2',
/

Note: ig = -1. Setting random seed to   690535 based on wallclock time in
      microseconds.

--------------------------------------------------------------------------------
   1.  RESOURCE   USE:
--------------------------------------------------------------------------------

 getting box info from netcdf restart file
 NATOM  =   20852 NTYPES =       6 NBONH =   20844 MBONA  =       6
 NTHETH =      12 MTHETA =       6 NPHIH =      24 MPHIA  =       2
 NHPARM =       0 NPARM  =       0 NNB   =   27828 NRES   =    6948
 NBONA  =       6 NTHETA =       6 NPHIA =       2 NUMBND =       5
 NUMANG =       4 NPTRA  =       3 NATYP =       6 NPHB   =       1
 IFBOX  =       2 NMXRS  =       7 IFCAP =       0 NEXTRA =       0
 NCOPY  =       0

     BOX TYPE: TRUNCATED OCTAHEDRON

--------------------------------------------------------------------------------
   2.  CONTROL  DATA  FOR  THE  RUN
--------------------------------------------------------------------------------

default_name

General flags:
     imin    =       0, nmropt  =       0

Nature and format of input:
     ntx     =       5, irest   =       1, ntrx    =       1

Nature and format of output:
     ntxo    =       2, ntpr    =    1000, ntrx    =       1, ntwr    =    1000
     iwrap   =       0, ntwx    =   50000, ntwv    =      -1, ntwe    =       0
     ioutfm  =       1, ntwprt  =       0, idecomp =       0, rbornstat=      0

Potential function:
     ntf     =       2, ntb     =       2, igb     =       0, nsnb    =      25
     ipol    =       0, gbsa    =       0, iesp    =       0
     dielc   =   1.00000, cut     =  10.00000, intdiel =   1.00000

Frozen or restrained atoms:
     ibelly  =       0, ntr     =       0

Molecular dynamics:
     nstlim  =    500000, nscm    =      1000, nrespa  =         1
     t       =   0.00000, dt      =   0.00200, vlimit  =  -1.00000

Langevin dynamics temperature regulation:
     ig      =  690535
     temp0   = 300.00000, tempi   = 300.00000, gamma_ln=   2.00000

Pressure regulation:
     ntp     =       1
     pres0   =   1.01325, comp    =  44.60000, taup    =   5.00000

SHAKE:
     ntc     =       2, jfastw  =       0
     tol     =   0.00001

Free energy options:
     icfe    =       1, ifsc    =       0, klambda =       1
     clambda =  0.0479, scalpha =  0.5000, scbeta  = 12.0000
     sceeorder =       2
     dynlmb =  0.0000 logdvdl =       0

Ewald parameters:
     verbose =       0, ew_type =       0, nbflag  =       1, use_pme =       1
     vdwmeth =       1, eedmeth =       1, netfrc  =       1
     Box X =   66.953   Box Y =   66.953   Box Z =   66.953
     Alpha =  109.471   Beta  =  109.471   Gamma =  109.471
     NFFT1 =   64       NFFT2 =   64       NFFT3 =   64
     Cutoff=   10.000   Tol   =0.100E-04
     Ewald Coefficient =  0.27511
     Interpolation order =    4
     TI Mask 1 :1; matches      7 atoms
     TI Mask 2 :2; matches      7 atoms
     TI region 1:   20845 atoms
     TI region 2:   20845 atoms
Removing charge of      -0.8188 from atom       8
Removing charge of      -0.8188 from atom       9
Removing charge of       0.8054 from atom      10
Removing charge of      -0.1021 from atom      11
Removing charge of      -0.0219 from atom      12
Removing charge of      -0.0219 from atom      13
Removing charge of      -0.0219 from atom      14
Total charge of  -0.99999900 removed from       7 atoms
     Checking for mismatched coordinates.

--------------------------------------------------------------------------------
   3.  ATOMIC COORDINATES AND VELOCITIES
--------------------------------------------------------------------------------

default_name
 begin time read from input coords =   200.000 ps

 Number of triangulated 3-point waters found:     6946

     Sum of charges for TI region  1 =  -1.00000662
     Assuming uniform neutralizing plasma

     Sum of charges for TI region  2 =  -0.00000762
     Forcing neutrality...

--------------------------------------------------------------------------------
   4.  RESULTS
 NSTEP =     1000   TIME(PS) =     202.000  TEMP(K) =   303.37  PRESS =  -948.4
 Etot   =    -63587.5874  EKtot   =     12567.8919  EPtot      =    -76155.4793
 BOND   =         0.8423  ANGLE   =         5.9626  DIHED      =         5.3075
 1-4 NB =         0.0958  1-4 EEL =         9.6252  VDWAALS    =     14160.7133
 EELEC  =    -90338.0259  EHBOND  =         0.0000  RESTRAINT  =         0.0000
 EKCMT  =      6287.8189  VIRIAL  =     10904.7283  VOLUME     =    225474.9959
                                                    Density    =         0.9221
 DV/DL  =       180.2567
 ------------------------------------------------------------------------------

      A V E R A G E S   O V E R    1000 S T E P S

 NSTEP =     1000   TIME(PS) =     202.000  TEMP(K) =   301.62  PRESS = -1365.9
 Etot   =    -63521.1735  EKtot   =     12495.0202  EPtot      =    -76016.1937
 BOND   =         1.0587  ANGLE   =         5.2555  DIHED      =         5.2751
 1-4 NB =         0.3312  1-4 EEL =         9.9162  VDWAALS    =     13837.2685
 EELEC  =    -89875.2990  EHBOND  =         0.0000  RESTRAINT  =         0.0000
 EKCMT  =      6277.0017  VIRIAL  =     13008.3908  VOLUME     =    228140.4203
                                                    Density    =         0.9113
 DV/DL  =       168.0477
 ------------------------------------------------------------------------------

      R M S  F L U C T U A T I O N S

 NSTEP =     1000   TIME(PS) =     202.000  TEMP(K) =     1.99  PRESS =   132.4
 Etot   =        63.3985  EKtot   =        82.2994  EPtot      =        89.7407
 BOND   =         0.8426  ANGLE   =         1.2222  DIHED      =         0.0768
 1-4 NB =         0.2048  1-4 EEL =         0.1623  VDWAALS    =        99.7625
 EELEC  =       135.8971  EHBOND  =         0.0000  RESTRAINT  =         0.0000
 EKCMT  =        52.4052  VIRIAL  =       678.2321  VOLUME     =      1601.8585
                                                    Density    =         0.0064
 DV/DL  =         8.7406
 ------------------------------------------------------------------------------

      A V E R A G E S   O V E R    1000 S T E P S

 NSTEP =     1000   TIME(PS) =     202.000  TEMP(K) =   301.62  PRESS = -1365.9
 Etot   =    -63521.1735  EKtot   =     12495.0202  EPtot      =    -76016.1937
 BOND   =         1.0587  ANGLE   =         5.2555  DIHED      =         5.2751
 1-4 NB =         0.3312  1-4 EEL =         9.9162  VDWAALS    =     13837.2685
 EELEC  =    -89875.2990  EHBOND  =         0.0000  RESTRAINT  =         0.0000
 EKCMT  =      6277.0017  VIRIAL  =     13008.3908  VOLUME     =    228140.4203
                                                    Density    =         0.9113
 DV/DL  =       168.0477
 ------------------------------------------------------------------------------

      R M S  F L U C T U A T I O N S

 NSTEP =     1000   TIME(PS) =     202.000  TEMP(K) =     1.99  PRESS =   132.4
 Etot   =        63.3985  EKtot   =        82.2994  EPtot      =        89.7407
 BOND   =         0.8426  ANGLE   =         1.2222  DIHED      =         0.0768
 1-4 NB =         0.2048  1-4 EEL =         0.1623  VDWAALS    =        99.7625
 EELEC  =       135.8971  EHBOND  =         0.0000  RESTRAINT  =         0.0000
 EKCMT  =        52.4052  VIRIAL  =       678.2321  VOLUME     =      1601.8585
                                                    Density    =         0.0064
 DV/DL  =         8.7406
 ------------------------------------------------------------------------------

      DV/DL, AVERAGES OVER    1000 STEPS

 NSTEP =     1000   TIME(PS) =     202.000  TEMP(K) =     1.99  PRESS =     0.0
 Etot   =         0.0000  EKtot   =         0.0000  EPtot      =       168.0477
 BOND   =         0.0000  ANGLE   =         0.0000  DIHED      =         0.0000
 1-4 NB =         0.0000  1-4 EEL =       -10.4156  VDWAALS    =         0.0000
 EELEC  =       178.4633  EHBOND  =         0.0000  RESTRAINT  =         0.0000
 EKCMT  =         0.0000  VIRIAL  =         0.0000  VOLUME     =         0.0000
                                                    Density    =         0.0000
 DV/DL  =       168.0477
 ------------------------------------------------------------------------------

      A V E R A G E S   O V E R    1000 S T E P S

 NSTEP =     2000   TIME(PS) =     204.000  TEMP(K) =   300.16  PRESS = -1040.0
 Etot   =    -64081.1122  EKtot   =     12434.6229  EPtot      =    -76515.7351
 BOND   =         0.8732  ANGLE   =         5.9192  DIHED      =         5.2788
 1-4 NB =         0.3435  1-4 EEL =         9.9209  VDWAALS    =     14135.2256
 EELEC  =    -90673.2963  EHBOND  =         0.0000  RESTRAINT  =         0.0000
 EKCMT  =      6217.6102  VIRIAL  =     11233.8341  VOLUME     =    223285.1843
                                                    Density    =         0.9311
 DV/DL  =       171.2007
 ------------------------------------------------------------------------------

      R M S  F L U C T U A T I O N S

 NSTEP =     2000   TIME(PS) =     204.000  TEMP(K) =     1.70  PRESS =   180.1
 Etot   =       203.8380  EKtot   =        70.4088  EPtot      =       178.5860
 BOND   =         0.6411  ANGLE   =         1.4123  DIHED      =         0.0773
 1-4 NB =         0.1960  1-4 EEL =         0.1595  VDWAALS    =       184.0182
 EELEC  =       313.5317  EHBOND  =         0.0000  RESTRAINT  =         0.0000
 EKCMT  =        51.4313  VIRIAL  =       902.8674  VOLUME     =      1210.1983
                                                    Density    =         0.0050
 DV/DL  =         8.2032
 ------------------------------------------------------------------------------

      A V E R A G E S   O V E R    1000 S T E P S

 NSTEP =     2000   TIME(PS) =     204.000  TEMP(K) =   300.16  PRESS = -1040.0
 Etot   =    -64081.1122  EKtot   =     12434.6229  EPtot      =    -76515.7351
 BOND   =         0.8732  ANGLE   =         5.9192  DIHED      =         5.2788
 1-4 NB =         0.3435  1-4 EEL =         9.9209  VDWAALS    =     14135.2256
 EELEC  =    -90673.2963  EHBOND  =         0.0000  RESTRAINT  =         0.0000
 EKCMT  =      6217.6102  VIRIAL  =     11233.8341  VOLUME     =    223285.1843
                                                    Density    =         0.9311
 DV/DL  =       171.2007
 ------------------------------------------------------------------------------

      R M S  F L U C T U A T I O N S

 NSTEP =     2000   TIME(PS) =     204.000  TEMP(K) =     1.70  PRESS =   180.1
 Etot   =       203.8380  EKtot   =        70.4088  EPtot      =       178.5860
 BOND   =         0.6411  ANGLE   =         1.4123  DIHED      =         0.0773
 1-4 NB =         0.1960  1-4 EEL =         0.1595  VDWAALS    =       184.0182
 EELEC  =       313.5317  EHBOND  =         0.0000  RESTRAINT  =         0.0000
 EKCMT  =        51.4313  VIRIAL  =       902.8674  VOLUME     =      1210.1983
                                                    Density    =         0.0050
 DV/DL  =         8.2032
 ------------------------------------------------------------------------------

      DV/DL, AVERAGES OVER    1000 STEPS

 NSTEP =     2000   TIME(PS) =     204.000  TEMP(K) =     1.70  PRESS =     0.0
 Etot   =         0.0000  EKtot   =         0.0000  EPtot      =       171.2007
 BOND   =         0.0000  ANGLE   =         0.0000  DIHED      =         0.0000
 1-4 NB =         0.0000  1-4 EEL =       -10.4204  VDWAALS    =         0.0000
 EELEC  =       181.6211  EHBOND  =         0.0000  RESTRAINT  =         0.0000
 EKCMT  =         0.0000  VIRIAL  =         0.0000  VOLUME     =         0.0000
                                                    Density    =         0.0000
 DV/DL  =       171.2007
 ------------------------------------------------------------------------------

      A V E R A G E S   O V E R    1000 S T E P S

 NSTEP =   500000   TIME(PS) =    1200.000  TEMP(K) =   299.48  PRESS =    -7.5
 Etot   =    -65004.0689  EKtot   =     12406.7217  EPtot      =    -77410.7906
 BOND   =         1.2383  ANGLE   =         6.8350  DIHED      =         5.2682
 1-4 NB =         0.3769  1-4 EEL =         9.9278  VDWAALS    =     14595.2690
 EELEC  =    -92029.7058  EHBOND  =         0.0000  RESTRAINT  =         0.0000
 EKCMT  =      6200.4276  VIRIAL  =      6234.2725  VOLUME     =    208323.4503
                                                    Density    =         0.9980
 DV/DL  =       172.7687
 ------------------------------------------------------------------------------

      R M S  F L U C T U A T I O N S

 NSTEP =   500000   TIME(PS) =    1200.000  TEMP(K) =     1.91  PRESS =   148.4
 Etot   =        97.6771  EKtot   =        79.2160  EPtot      =        94.5155
 BOND   =         0.8691  ANGLE   =         1.7598  DIHED      =         0.0711
 1-4 NB =         0.2871  1-4 EEL =         0.1948  VDWAALS    =       149.5399
 EELEC  =       204.3321  EHBOND  =         0.0000  RESTRAINT  =         0.0000
 EKCMT  =        56.8382  VIRIAL  =       657.3038  VOLUME     =        36.9373
                                                    Density    =         0.0002
 DV/DL  =         9.4320
 ------------------------------------------------------------------------------

      A V E R A G E S   O V E R    1000 S T E P S

 NSTEP =   500000   TIME(PS) =    1200.000  TEMP(K) =   299.48  PRESS =    -7.5
 Etot   =    -65004.0689  EKtot   =     12406.7217  EPtot      =    -77410.7906
 BOND   =         1.2383  ANGLE   =         6.8350  DIHED      =         5.2682
 1-4 NB =         0.3769  1-4 EEL =         9.9278  VDWAALS    =     14595.2690
 EELEC  =    -92029.7058  EHBOND  =         0.0000  RESTRAINT  =         0.0000
 EKCMT  =      6200.4276  VIRIAL  =      6234.2725  VOLUME     =    208323.4503
                                                    Density    =         0.9980
 DV/DL  =       172.7687
 ------------------------------------------------------------------------------

      R M S  F L U C T U A T I O N S

 NSTEP =   500000   TIME(PS) =    1200.000  TEMP(K) =     1.91  PRESS =   148.4
 Etot   =        97.6771  EKtot   =        79.2160  EPtot      =        94.5155
 BOND   =         0.8691  ANGLE   =         1.7598  DIHED      =         0.0711
 1-4 NB =         0.2871  1-4 EEL =         0.1948  VDWAALS    =       149.5399
 EELEC  =       204.3321  EHBOND  =         0.0000  RESTRAINT  =         0.0000
 EKCMT  =        56.8382  VIRIAL  =       657.3038  VOLUME     =        36.9373
                                                    Density    =         0.0002
 DV/DL  =         9.4320
 ------------------------------------------------------------------------------

      DV/DL, AVERAGES OVER    1000 STEPS

 NSTEP =   500000   TIME(PS) =    1200.000  TEMP(K) =     1.91  PRESS =     0.0
 Etot   =         0.0000  EKtot   =         0.0000  EPtot      =       172.7687
 BOND   =         0.0000  ANGLE   =         0.0000  DIHED      =         0.0000
 1-4 NB =         0.0000  1-4 EEL =       -10.4277  VDWAALS    =         0.0000
 EELEC  =       183.1964  EHBOND  =         0.0000  RESTRAINT  =         0.0000
 EKCMT  =         0.0000  VIRIAL  =         0.0000  VOLUME     =         0.0000
                                                    Density    =         0.0000
 DV/DL  =       172.7687
 ------------------------------------------------------------------------------

      A V E R A G E S   O V E R  500000 S T E P S

 NSTEP =   500000   TIME(PS) =    1200.000  TEMP(K) =   299.95  PRESS =   -10.6
 Etot   =    -64990.6432  EKtot   =     12426.0746  EPtot      =    -77416.7177
 BOND   =         0.9612  ANGLE   =         5.4847  DIHED      =         5.2878
 1-4 NB =         0.3450  1-4 EEL =         9.9295  VDWAALS    =     14623.0786
 EELEC  =    -92061.8045  EHBOND  =         0.0000  RESTRAINT  =         0.0000
 EKCMT  =      6233.0906  VIRIAL  =      6283.4544  VOLUME     =    208631.9315
                                                    Density    =         0.9965
 DV/DL  =       170.5120
 ------------------------------------------------------------------------------

      R M S  F L U C T U A T I O N S

 NSTEP =   500000   TIME(PS) =    1200.000  TEMP(K) =     2.06  PRESS =   170.1
 Etot   =       184.2012  EKtot   =        85.1626  EPtot      =       161.2422
 BOND   =         0.7870  ANGLE   =         1.3667  DIHED      =         0.0990
 1-4 NB =         0.2031  1-4 EEL =         0.1561  VDWAALS    =       151.6793
 EELEC  =       265.9832  EHBOND  =         0.0000  RESTRAINT  =         0.0000
 EKCMT  =        61.6248  VIRIAL  =       783.4545  VOLUME     =      1353.2579
                                                    Density    =         0.0061
 DV/DL  =        10.1295
 ------------------------------------------------------------------------------

      A V E R A G E S   O V E R  500000 S T E P S

 NSTEP =   500000   TIME(PS) =    1200.000  TEMP(K) =   299.95  PRESS =   -10.6
 Etot   =    -64990.6432  EKtot   =     12426.0746  EPtot      =    -77416.7177
 BOND   =         0.9612  ANGLE   =         5.4847  DIHED      =         5.2878
 1-4 NB =         0.3450  1-4 EEL =         9.9295  VDWAALS    =     14623.0786
 EELEC  =    -92061.8045  EHBOND  =         0.0000  RESTRAINT  =         0.0000
 EKCMT  =      6233.0906  VIRIAL  =      6283.4544  VOLUME     =    208631.9315
                                                    Density    =         0.9965
 DV/DL  =       170.5120
 ------------------------------------------------------------------------------

      R M S  F L U C T U A T I O N S

 NSTEP =   500000   TIME(PS) =    1200.000  TEMP(K) =     2.06  PRESS =   170.1
 Etot   =       184.2012  EKtot   =        85.1626  EPtot      =       161.2422
 BOND   =         0.7870  ANGLE   =         1.3667  DIHED      =         0.0990
 1-4 NB =         0.2031  1-4 EEL =         0.1561  VDWAALS    =       151.6793
 EELEC  =       265.9832  EHBOND  =         0.0000  RESTRAINT  =         0.0000
 EKCMT  =        61.6248  VIRIAL  =       783.4545  VOLUME     =      1353.2579
                                                    Density    =         0.0061
 DV/DL  =        10.1295
 ------------------------------------------------------------------------------

      DV/DL, AVERAGES OVER  500000 STEPS

 NSTEP =   500000   TIME(PS) =    1200.000  TEMP(K) =     2.06  PRESS =     0.0
 Etot   =         0.0000  EKtot   =         0.0000  EPtot      =       170.5120
 BOND   =         0.0000  ANGLE   =         0.0000  DIHED      =         0.0000
 1-4 NB =         0.0000  1-4 EEL =       -10.4295  VDWAALS    =         0.0000
 EELEC  =       180.9415  EHBOND  =         0.0000  RESTRAINT  =         0.0000
 EKCMT  =         0.0000  VIRIAL  =         0.0000  VOLUME     =         0.0000
                                                    Density    =         0.0000
 DV/DL  =       170.5120
 ------------------------------------------------------------------------------
