-------------------------------------------------------
          Amber 18 PMEMD                              2018
          -------------------------------------------------------

  [-O]verwriting output

File Assignments:

 Here is the input file:

 &cntrl
   nstlim=500000, nscm=1000,
   ntx=5, irest=1, ntpr=1000,
   tempi=300.0, temp0=300.0, ntt=3, gamma_ln=2.0,
   ntp=1, pres0=1.01325, taup=5.0,
   ntb=2, igb=0, cut=10.0,
   dt=0.002, ig=-1,
   ntc=2, ntf=2,
   iwrap=0,
   ntwr=1000, ntwx=50000, ntave=1000,
   ioutfm=1, ntwv=-1,
   ifsc = 0, icfe=1,
   clambda=0.43738,
   timask1=':1',
   timask2=':2', crgmask = ':2',
/

Note: ig = -1. Setting random seed to   959593 based on wallclock time in
      microseconds.

--------------------------------------------------------------------------------
   1.  RESOURCE   USE:
--------------------------------------------------------------------------------

 getting box info from netcdf restart file
 NATOM  =      14 NTYPES =       6 NBONH =       6 MBONA  =       6
 NTHETH =      12 MTHETA =       6 NPHIH =      24 MPHIA  =       2
 NHPARM =       0 NPARM  =       0 NNB   =      44 NRES   =       2
 NBONA  =       6 NTHETA =       6 NPHIA =       2 NUMBND =       3
 NUMANG =       4 NPTRA  =       3 NATYP =       6 NPHB   =       1
 IFBOX  =       2 NMXRS  =       7 IFCAP =       0 NEXTRA =       0
 NCOPY  =       0

     BOX TYPE: TRUNCATED OCTAHEDRON

--------------------------------------------------------------------------------
   2.  CONTROL  DATA  FOR  THE  RUN
--------------------------------------------------------------------------------

default_name

General flags:
     imin    =       0, nmropt  =       0

Nature and format of input:
     ntx     =       5, irest   =       1, ntrx    =       1

Nature and format of output:
     ntxo    =       2, ntpr    =    1000, ntrx    =       1, ntwr    =    1000
     iwrap   =       0, ntwx    =   50000, ntwv    =      -1, ntwe    =       0
     ioutfm  =       1, ntwprt  =       0, idecomp =       0, rbornstat=      0

Potential function:
     ntf     =       2, ntb     =       2, igb     =       0, nsnb    =      25
     ipol    =       0, gbsa    =       0, iesp    =       0
     dielc   =   1.00000, cut     =  10.00000, intdiel =   1.00000

Frozen or restrained atoms:
     ibelly  =       0, ntr     =       0

Molecular dynamics:
     nstlim  =    500000, nscm    =      1000, nrespa  =         1
     t       =   0.00000, dt      =   0.00200, vlimit  =  -1.00000

Langevin dynamics temperature regulation:
     ig      =  959593
     temp0   = 300.00000, tempi   = 300.00000, gamma_ln=   2.00000

Pressure regulation:
     ntp     =       1
     pres0   =   1.01325, comp    =  44.60000, taup    =   5.00000

SHAKE:
     ntc     =       2, jfastw  =       0
     tol     =   0.00001

Free energy options:
     icfe    =       1, ifsc    =       0, klambda =       1
     clambda =  0.4374, scalpha =  0.5000, scbeta  = 12.0000
     sceeorder =       2
     dynlmb =  0.0000 logdvdl =       0

Ewald parameters:
     verbose =       0, ew_type =       0, nbflag  =       1, use_pme =       1
     vdwmeth =       1, eedmeth =       1, netfrc  =       1
     Box X =   66.953   Box Y =   66.953   Box Z =   66.953
     Alpha =  109.471   Beta  =  109.471   Gamma =  109.471
     NFFT1 =   64       NFFT2 =   64       NFFT3 =   64
     Cutoff=   10.000   Tol   =0.100E-04
     Ewald Coefficient =  0.27511
     Interpolation order =    4
     TI Mask 1 :1; matches      7 atoms
     TI Mask 2 :2; matches      7 atoms
     TI region 1:       7 atoms
     TI region 2:       7 atoms
Removing charge of      -0.8188 from atom       8
Removing charge of      -0.8188 from atom       9
Removing charge of       0.8054 from atom      10
Removing charge of      -0.1021 from atom      11
Removing charge of      -0.0219 from atom      12
Removing charge of      -0.0219 from atom      13
Removing charge of      -0.0219 from atom      14
Total charge of  -0.99999900 removed from       7 atoms
     Checking for mismatched coordinates.

--------------------------------------------------------------------------------
   3.  ATOMIC COORDINATES AND VELOCITIES
--------------------------------------------------------------------------------

default_name
 begin time read from input coords =   200.000 ps

 Number of triangulated 3-point waters found:        0

     Sum of charges for TI region  1 =  -0.99999900
     Assuming uniform neutralizing plasma

     Sum of charges for TI region  2 =   0.00000000
     Forcing neutrality...

--------------------------------------------------------------------------------
   4.  RESULTS
 NSTEP =     1000   TIME(PS) =     202.000  TEMP(K) =   368.03  PRESS =     0.4
 Etot   =        18.7858  EKtot   =         6.5821  EPtot      =        12.2037
 BOND   =         0.4824  ANGLE   =         4.9264  DIHED      =         5.2228
 1-4 NB =         0.1473  1-4 EEL =         5.8182  VDWAALS    =        -0.0001
 EELEC  =        -4.3933  EHBOND  =         0.0000  RESTRAINT  =         0.0000
 EKCMT  =         3.4710  VIRIAL  =         1.6096  VOLUME     =    231036.6937
                                                    Density    =         0.0004
 DV/DL  =        -2.5326
 ------------------------------------------------------------------------------

      A V E R A G E S   O V E R    1000 S T E P S

 NSTEP =     1000   TIME(PS) =     202.000  TEMP(K) =   354.11  PRESS =     0.9
 Etot   =        19.1340  EKtot   =         6.3331  EPtot      =        12.8009
 BOND   =         0.8435  ANGLE   =         4.8130  DIHED      =         5.2608
 1-4 NB =         0.3867  1-4 EEL =         5.8897  VDWAALS    =        -0.0001
 EELEC  =        -4.3926  EHBOND  =         0.0000  RESTRAINT  =         0.0000
 EKCMT  =         4.9661  VIRIAL  =         0.5059  VOLUME     =    231036.8292
                                                    Density    =         0.0004
 DV/DL  =        -2.6609
 ------------------------------------------------------------------------------

      R M S  F L U C T U A T I O N S

 NSTEP =     1000   TIME(PS) =     202.000  TEMP(K) =    87.96  PRESS =     0.4
 Etot   =         1.8318  EKtot   =         1.5732  EPtot      =         1.1720
 BOND   =         0.8009  ANGLE   =         0.8656  DIHED      =         0.0621
 1-4 NB =         0.1847  1-4 EEL =         0.0823  VDWAALS    =         0.0000
 EELEC  =         0.0017  EHBOND  =         0.0000  RESTRAINT  =         0.0000
 EKCMT  =         2.1527  VIRIAL  =         1.1611  VOLUME     =         0.1834
                                                    Density    =         0.0000
 DV/DL  =         0.1463
 ------------------------------------------------------------------------------

      A V E R A G E S   O V E R    1000 S T E P S

 NSTEP =     1000   TIME(PS) =     202.000  TEMP(K) =   354.11  PRESS =     0.9
 Etot   =        19.1340  EKtot   =         6.3331  EPtot      =        12.8009
 BOND   =         0.8435  ANGLE   =         4.8130  DIHED      =         5.2608
 1-4 NB =         0.3867  1-4 EEL =         5.8897  VDWAALS    =        -0.0001
 EELEC  =        -4.3926  EHBOND  =         0.0000  RESTRAINT  =         0.0000
 EKCMT  =         4.9661  VIRIAL  =         0.5059  VOLUME     =    231036.8292
                                                    Density    =         0.0004
 DV/DL  =        -2.6609
 ------------------------------------------------------------------------------

      R M S  F L U C T U A T I O N S

 NSTEP =     1000   TIME(PS) =     202.000  TEMP(K) =    87.96  PRESS =     0.4
 Etot   =         1.8318  EKtot   =         1.5732  EPtot      =         1.1720
 BOND   =         0.8009  ANGLE   =         0.8656  DIHED      =         0.0621
 1-4 NB =         0.1847  1-4 EEL =         0.0823  VDWAALS    =         0.0000
 EELEC  =         0.0017  EHBOND  =         0.0000  RESTRAINT  =         0.0000
 EKCMT  =         2.1527  VIRIAL  =         1.1611  VOLUME     =         0.1834
                                                    Density    =         0.0000
 DV/DL  =         0.1463
 ------------------------------------------------------------------------------

      DV/DL, AVERAGES OVER    1000 STEPS

 NSTEP =     1000   TIME(PS) =     202.000  TEMP(K) =    87.96  PRESS =     0.0
 Etot   =         0.0000  EKtot   =         0.0000  EPtot      =        -2.6609
 BOND   =         0.0000  ANGLE   =         0.0000  DIHED      =         0.0000
 1-4 NB =         0.0000  1-4 EEL =       -10.4683  VDWAALS    =         0.0000
 EELEC  =         7.8074  EHBOND  =         0.0000  RESTRAINT  =         0.0000
 EKCMT  =         0.0000  VIRIAL  =         0.0000  VOLUME     =         0.0000
                                                    Density    =         0.0000
 DV/DL  =        -2.6609
 ------------------------------------------------------------------------------

      A V E R A G E S   O V E R    1000 S T E P S

 NSTEP =     2000   TIME(PS) =     204.000  TEMP(K) =   235.02  PRESS =     0.2
 Etot   =        17.2141  EKtot   =         4.2033  EPtot      =        13.0107
 BOND   =         0.9289  ANGLE   =         4.9109  DIHED      =         5.2853
 1-4 NB =         0.3867  1-4 EEL =         5.8917  VDWAALS    =        -0.0001
 EELEC  =        -4.3927  EHBOND  =         0.0000  RESTRAINT  =         0.0000
 EKCMT  =         1.2471  VIRIAL  =         0.0171  VOLUME     =    231035.1622
                                                    Density    =         0.0004
 DV/DL  =        -2.6644
 ------------------------------------------------------------------------------

      R M S  F L U C T U A T I O N S

 NSTEP =     2000   TIME(PS) =     204.000  TEMP(K) =    95.28  PRESS =     0.3
 Etot   =         2.5375  EKtot   =         1.7041  EPtot      =         1.6041
 BOND   =         0.7172  ANGLE   =         1.3179  DIHED      =         0.1032
 1-4 NB =         0.2001  1-4 EEL =         0.0902  VDWAALS    =         0.0000
 EELEC  =         0.0017  EHBOND  =         0.0000  RESTRAINT  =         0.0000
 EKCMT  =         0.7665  VIRIAL  =         1.1716  VOLUME     =         0.8261
                                                    Density    =         0.0000
 DV/DL  =         0.1602
 ------------------------------------------------------------------------------

      A V E R A G E S   O V E R    1000 S T E P S

 NSTEP =     2000   TIME(PS) =     204.000  TEMP(K) =   235.02  PRESS =     0.2
 Etot   =        17.2141  EKtot   =         4.2033  EPtot      =        13.0107
 BOND   =         0.9289  ANGLE   =         4.9109  DIHED      =         5.2853
 1-4 NB =         0.3867  1-4 EEL =         5.8917  VDWAALS    =        -0.0001
 EELEC  =        -4.3927  EHBOND  =         0.0000  RESTRAINT  =         0.0000
 EKCMT  =         1.2471  VIRIAL  =         0.0171  VOLUME     =    231035.1622
                                                    Density    =         0.0004
 DV/DL  =        -2.6644
 ------------------------------------------------------------------------------

      R M S  F L U C T U A T I O N S

 NSTEP =     2000   TIME(PS) =     204.000  TEMP(K) =    95.28  PRESS =     0.3
 Etot   =         2.5375  EKtot   =         1.7041  EPtot      =         1.6041
 BOND   =         0.7172  ANGLE   =         1.3179  DIHED      =         0.1032
 1-4 NB =         0.2001  1-4 EEL =         0.0902  VDWAALS    =         0.0000
 EELEC  =         0.0017  EHBOND  =         0.0000  RESTRAINT  =         0.0000
 EKCMT  =         0.7665  VIRIAL  =         1.1716  VOLUME     =         0.8261
                                                    Density    =         0.0000
 DV/DL  =         0.1602
 ------------------------------------------------------------------------------

      DV/DL, AVERAGES OVER    1000 STEPS

 NSTEP =     2000   TIME(PS) =     204.000  TEMP(K) =    95.28  PRESS =     0.0
 Etot   =         0.0000  EKtot   =         0.0000  EPtot      =        -2.6644
 BOND   =         0.0000  ANGLE   =         0.0000  DIHED      =         0.0000
 1-4 NB =         0.0000  1-4 EEL =       -10.4719  VDWAALS    =         0.0000
 EELEC  =         7.8075  EHBOND  =         0.0000  RESTRAINT  =         0.0000
 EKCMT  =         0.0000  VIRIAL  =         0.0000  VOLUME     =         0.0000
                                                    Density    =         0.0000
 DV/DL  =        -2.6644
 ------------------------------------------------------------------------------

      A V E R A G E S   O V E R    1000 S T E P S

 NSTEP =   500000   TIME(PS) =    1200.000  TEMP(K) =   343.39  PRESS =     0.2
 Etot   =        19.9641  EKtot   =         6.1414  EPtot      =        13.8227
 BOND   =         1.1771  ANGLE   =         5.4720  DIHED      =         5.2521
 1-4 NB =         0.4335  1-4 EEL =         5.8911  VDWAALS    =        -0.0001
 EELEC  =        -4.4029  EHBOND  =         0.0000  RESTRAINT  =         0.0000
 EKCMT  =         1.5322  VIRIAL  =         0.4822  VOLUME     =    229453.7228
                                                    Density    =         0.0004
 DV/DL  =        -2.6451
 ------------------------------------------------------------------------------

      R M S  F L U C T U A T I O N S

 NSTEP =   500000   TIME(PS) =    1200.000  TEMP(K) =    77.95  PRESS =     0.3
 Etot   =         1.1221  EKtot   =         1.3942  EPtot      =         1.4146
 BOND   =         0.8311  ANGLE   =         1.2433  DIHED      =         0.0475
 1-4 NB =         0.3033  1-4 EEL =         0.1124  VDWAALS    =         0.0000
 EELEC  =         0.0017  EHBOND  =         0.0000  RESTRAINT  =         0.0000
 EKCMT  =         1.1267  VIRIAL  =         1.5601  VOLUME     =         0.9203
                                                    Density    =         0.0000
 DV/DL  =         0.1997
 ------------------------------------------------------------------------------

      A V E R A G E S   O V E R    1000 S T E P S

 NSTEP =   500000   TIME(PS) =    1200.000  TEMP(K) =   343.39  PRESS =     0.2
 Etot   =        19.9641  EKtot   =         6.1414  EPtot      =        13.8227
 BOND   =         1.1771  ANGLE   =         5.4720  DIHED      =         5.2521
 1-4 NB =         0.4335  1-4 EEL =         5.8911  VDWAALS    =        -0.0001
 EELEC  =        -4.4029  EHBOND  =         0.0000  RESTRAINT  =         0.0000
 EKCMT  =         1.5322  VIRIAL  =         0.4822  VOLUME     =    229453.7228
                                                    Density    =         0.0004
 DV/DL  =        -2.6451
 ------------------------------------------------------------------------------

      R M S  F L U C T U A T I O N S

 NSTEP =   500000   TIME(PS) =    1200.000  TEMP(K) =    77.95  PRESS =     0.3
 Etot   =         1.1221  EKtot   =         1.3942  EPtot      =         1.4146
 BOND   =         0.8311  ANGLE   =         1.2433  DIHED      =         0.0475
 1-4 NB =         0.3033  1-4 EEL =         0.1124  VDWAALS    =         0.0000
 EELEC  =         0.0017  EHBOND  =         0.0000  RESTRAINT  =         0.0000
 EKCMT  =         1.1267  VIRIAL  =         1.5601  VOLUME     =         0.9203
                                                    Density    =         0.0000
 DV/DL  =         0.1997
 ------------------------------------------------------------------------------

      DV/DL, AVERAGES OVER    1000 STEPS

 NSTEP =   500000   TIME(PS) =    1200.000  TEMP(K) =    77.95  PRESS =     0.0
 Etot   =         0.0000  EKtot   =         0.0000  EPtot      =        -2.6451
 BOND   =         0.0000  ANGLE   =         0.0000  DIHED      =         0.0000
 1-4 NB =         0.0000  1-4 EEL =       -10.4708  VDWAALS    =         0.0000
 EELEC  =         7.8258  EHBOND  =         0.0000  RESTRAINT  =         0.0000
 EKCMT  =         0.0000  VIRIAL  =         0.0000  VOLUME     =         0.0000
                                                    Density    =         0.0000
 DV/DL  =        -2.6451
 ------------------------------------------------------------------------------

      A V E R A G E S   O V E R  500000 S T E P S

 NSTEP =   500000   TIME(PS) =    1200.000  TEMP(K) =   300.37  PRESS =     0.2
 Etot   =        18.6933  EKtot   =         5.3720  EPtot      =        13.3213
 BOND   =         0.9834  ANGLE   =         5.1562  DIHED      =         5.2769
 1-4 NB =         0.4101  1-4 EEL =         5.8926  VDWAALS    =        -0.0001
 EELEC  =        -4.3978  EHBOND  =         0.0000  RESTRAINT  =         0.0000
 EKCMT  =         1.8010  VIRIAL  =         0.6004  VOLUME     =    230245.0170
                                                    Density    =         0.0004
 DV/DL  =        -2.6570
 ------------------------------------------------------------------------------

      R M S  F L U C T U A T I O N S

 NSTEP =   500000   TIME(PS) =    1200.000  TEMP(K) =   101.34  PRESS =     0.4
 Etot   =         2.3602  EKtot   =         1.8125  EPtot      =         1.4917
 BOND   =         0.7944  ANGLE   =         1.1976  DIHED      =         0.0854
 1-4 NB =         0.2419  1-4 EEL =         0.0960  VDWAALS    =         0.0000
 EELEC  =         0.0033  EHBOND  =         0.0000  RESTRAINT  =         0.0000
 EKCMT  =         1.5054  VIRIAL  =         1.3270  VOLUME     =       461.3471
                                                    Density    =         0.0000
 DV/DL  =         0.1706
 ------------------------------------------------------------------------------

      A V E R A G E S   O V E R  500000 S T E P S

 NSTEP =   500000   TIME(PS) =    1200.000  TEMP(K) =   300.37  PRESS =     0.2
 Etot   =        18.6933  EKtot   =         5.3720  EPtot      =        13.3213
 BOND   =         0.9834  ANGLE   =         5.1562  DIHED      =         5.2769
 1-4 NB =         0.4101  1-4 EEL =         5.8926  VDWAALS    =        -0.0001
 EELEC  =        -4.3978  EHBOND  =         0.0000  RESTRAINT  =         0.0000
 EKCMT  =         1.8010  VIRIAL  =         0.6004  VOLUME     =    230245.0170
                                                    Density    =         0.0004
 DV/DL  =        -2.6570
 ------------------------------------------------------------------------------

      R M S  F L U C T U A T I O N S

 NSTEP =   500000   TIME(PS) =    1200.000  TEMP(K) =   101.34  PRESS =     0.4
 Etot   =         2.3602  EKtot   =         1.8125  EPtot      =         1.4917
 BOND   =         0.7944  ANGLE   =         1.1976  DIHED      =         0.0854
 1-4 NB =         0.2419  1-4 EEL =         0.0960  VDWAALS    =         0.0000
 EELEC  =         0.0033  EHBOND  =         0.0000  RESTRAINT  =         0.0000
 EKCMT  =         1.5054  VIRIAL  =         1.3270  VOLUME     =       461.3471
                                                    Density    =         0.0000
 DV/DL  =         0.1706
 ------------------------------------------------------------------------------

      DV/DL, AVERAGES OVER  500000 STEPS

 NSTEP =   500000   TIME(PS) =    1200.000  TEMP(K) =   101.34  PRESS =     0.0
 Etot   =         0.0000  EKtot   =         0.0000  EPtot      =        -2.6570
 BOND   =         0.0000  ANGLE   =         0.0000  DIHED      =         0.0000
 1-4 NB =         0.0000  1-4 EEL =       -10.4735  VDWAALS    =         0.0000
 EELEC  =         7.8166  EHBOND  =         0.0000  RESTRAINT  =         0.0000
 EKCMT  =         0.0000  VIRIAL  =         0.0000  VOLUME     =         0.0000
                                                    Density    =         0.0000
 DV/DL  =        -2.6570
 ------------------------------------------------------------------------------
