-------------------------------------------------------
          Amber 18 PMEMD                              2018
          -------------------------------------------------------

  [-O]verwriting output

File Assignments:

 Here is the input file:

 &cntrl
   nstlim=500000, nscm=1000,
   ntx=5, irest=1, ntpr=1000,
   tempi=300.0, temp0=300.0, ntt=3, gamma_ln=2.0,
   ntp=1, pres0=1.01325, taup=5.0,
   ntb=2, igb=0, cut=10.0,
   dt=0.002, ig=-1,
   ntc=2, ntf=2,
   iwrap=0,
   ntwr=1000, ntwx=50000, ntave=1000,
   ioutfm=1, ntwv=-1,
   ifsc = 0, icfe=1,
   clambda=0.95206,
   timask1=':1',
   timask2=':2', crgmask = ':2',
/

Note: ig = -1. Setting random seed to   568173 based on wallclock time in
      microseconds.

--------------------------------------------------------------------------------
   1.  RESOURCE   USE:
--------------------------------------------------------------------------------

 getting box info from netcdf restart file
 NATOM  =   20852 NTYPES =       6 NBONH =   20844 MBONA  =       6
 NTHETH =      12 MTHETA =       6 NPHIH =      24 MPHIA  =       2
 NHPARM =       0 NPARM  =       0 NNB   =   27828 NRES   =    6948
 NBONA  =       6 NTHETA =       6 NPHIA =       2 NUMBND =       5
 NUMANG =       4 NPTRA  =       3 NATYP =       6 NPHB   =       1
 IFBOX  =       2 NMXRS  =       7 IFCAP =       0 NEXTRA =       0
 NCOPY  =       0

     BOX TYPE: TRUNCATED OCTAHEDRON

--------------------------------------------------------------------------------
   2.  CONTROL  DATA  FOR  THE  RUN
--------------------------------------------------------------------------------

default_name

General flags:
     imin    =       0, nmropt  =       0

Nature and format of input:
     ntx     =       5, irest   =       1, ntrx    =       1

Nature and format of output:
     ntxo    =       2, ntpr    =    1000, ntrx    =       1, ntwr    =    1000
     iwrap   =       0, ntwx    =   50000, ntwv    =      -1, ntwe    =       0
     ioutfm  =       1, ntwprt  =       0, idecomp =       0, rbornstat=      0

Potential function:
     ntf     =       2, ntb     =       2, igb     =       0, nsnb    =      25
     ipol    =       0, gbsa    =       0, iesp    =       0
     dielc   =   1.00000, cut     =  10.00000, intdiel =   1.00000

Frozen or restrained atoms:
     ibelly  =       0, ntr     =       0

Molecular dynamics:
     nstlim  =    500000, nscm    =      1000, nrespa  =         1
     t       =   0.00000, dt      =   0.00200, vlimit  =  -1.00000

Langevin dynamics temperature regulation:
     ig      =  568173
     temp0   = 300.00000, tempi   = 300.00000, gamma_ln=   2.00000

Pressure regulation:
     ntp     =       1
     pres0   =   1.01325, comp    =  44.60000, taup    =   5.00000

SHAKE:
     ntc     =       2, jfastw  =       0
     tol     =   0.00001

Free energy options:
     icfe    =       1, ifsc    =       0, klambda =       1
     clambda =  0.9521, scalpha =  0.5000, scbeta  = 12.0000
     sceeorder =       2
     dynlmb =  0.0000 logdvdl =       0

Ewald parameters:
     verbose =       0, ew_type =       0, nbflag  =       1, use_pme =       1
     vdwmeth =       1, eedmeth =       1, netfrc  =       1
     Box X =   66.953   Box Y =   66.953   Box Z =   66.953
     Alpha =  109.471   Beta  =  109.471   Gamma =  109.471
     NFFT1 =   64       NFFT2 =   64       NFFT3 =   64
     Cutoff=   10.000   Tol   =0.100E-04
     Ewald Coefficient =  0.27511
     Interpolation order =    4
     TI Mask 1 :1; matches      7 atoms
     TI Mask 2 :2; matches      7 atoms
     TI region 1:   20845 atoms
     TI region 2:   20845 atoms
Removing charge of      -0.8188 from atom       8
Removing charge of      -0.8188 from atom       9
Removing charge of       0.8054 from atom      10
Removing charge of      -0.1021 from atom      11
Removing charge of      -0.0219 from atom      12
Removing charge of      -0.0219 from atom      13
Removing charge of      -0.0219 from atom      14
Total charge of  -0.99999900 removed from       7 atoms
     Checking for mismatched coordinates.

--------------------------------------------------------------------------------
   3.  ATOMIC COORDINATES AND VELOCITIES
--------------------------------------------------------------------------------

default_name
 begin time read from input coords =   200.000 ps

 Number of triangulated 3-point waters found:     6946

     Sum of charges for TI region  1 =  -1.00000662
     Assuming uniform neutralizing plasma

     Sum of charges for TI region  2 =  -0.00000762
     Forcing neutrality...

--------------------------------------------------------------------------------
   4.  RESULTS
 NSTEP =     1000   TIME(PS) =     202.000  TEMP(K) =   300.36  PRESS = -1129.3
 Etot   =    -63831.1339  EKtot   =     12443.1443  EPtot      =    -76274.2781
 BOND   =         1.5810  ANGLE   =         5.2608  DIHED      =         5.2386
 1-4 NB =         0.9958  1-4 EEL =         0.5165  VDWAALS    =     14033.6481
 EELEC  =    -90321.5190  EHBOND  =         0.0000  RESTRAINT  =         0.0000
 EKCMT  =      6190.1738  VIRIAL  =     11705.7581  VOLUME     =    226209.4077
                                                    Density    =         0.9191
 DV/DL  =         5.6105
 ------------------------------------------------------------------------------

      A V E R A G E S   O V E R    1000 S T E P S

 NSTEP =     1000   TIME(PS) =     202.000  TEMP(K) =   300.01  PRESS = -1183.8
 Etot   =    -63795.3719  EKtot   =     12428.3189  EPtot      =    -76223.6908
 BOND   =         1.1953  ANGLE   =         7.2814  DIHED      =         5.2796
 1-4 NB =         0.6497  1-4 EEL =         0.5054  VDWAALS    =     14061.8212
 EELEC  =    -90300.4234  EHBOND  =         0.0000  RESTRAINT  =         0.0000
 EKCMT  =      6231.8612  VIRIAL  =     12075.3034  VOLUME     =    228484.4909
                                                    Density    =         0.9099
 DV/DL  =        15.4126
 ------------------------------------------------------------------------------

      R M S  F L U C T U A T I O N S

 NSTEP =     1000   TIME(PS) =     202.000  TEMP(K) =     1.64  PRESS =   173.4
 Etot   =        53.1780  EKtot   =        68.1308  EPtot      =        67.4824
 BOND   =         0.8514  ANGLE   =         1.9839  DIHED      =         0.0998
 1-4 NB =         0.4634  1-4 EEL =         0.0082  VDWAALS    =       151.6291
 EELEC  =       171.2518  EHBOND  =         0.0000  RESTRAINT  =         0.0000
 EKCMT  =        51.0051  VIRIAL  =       882.8029  VOLUME     =      1392.1273
                                                    Density    =         0.0055
 DV/DL  =         7.9035
 ------------------------------------------------------------------------------

      A V E R A G E S   O V E R    1000 S T E P S

 NSTEP =     1000   TIME(PS) =     202.000  TEMP(K) =   300.01  PRESS = -1183.8
 Etot   =    -63795.3719  EKtot   =     12428.3189  EPtot      =    -76223.6908
 BOND   =         1.1953  ANGLE   =         7.2814  DIHED      =         5.2796
 1-4 NB =         0.6497  1-4 EEL =         0.5054  VDWAALS    =     14061.8212
 EELEC  =    -90300.4234  EHBOND  =         0.0000  RESTRAINT  =         0.0000
 EKCMT  =      6231.8612  VIRIAL  =     12075.3034  VOLUME     =    228484.4909
                                                    Density    =         0.9099
 DV/DL  =        15.4126
 ------------------------------------------------------------------------------

      R M S  F L U C T U A T I O N S

 NSTEP =     1000   TIME(PS) =     202.000  TEMP(K) =     1.64  PRESS =   173.4
 Etot   =        53.1780  EKtot   =        68.1308  EPtot      =        67.4824
 BOND   =         0.8514  ANGLE   =         1.9839  DIHED      =         0.0998
 1-4 NB =         0.4634  1-4 EEL =         0.0082  VDWAALS    =       151.6291
 EELEC  =       171.2518  EHBOND  =         0.0000  RESTRAINT  =         0.0000
 EKCMT  =        51.0051  VIRIAL  =       882.8029  VOLUME     =      1392.1273
                                                    Density    =         0.0055
 DV/DL  =         7.9035
 ------------------------------------------------------------------------------

      DV/DL, AVERAGES OVER    1000 STEPS

 NSTEP =     1000   TIME(PS) =     202.000  TEMP(K) =     1.64  PRESS =     0.0
 Etot   =         0.0000  EKtot   =         0.0000  EPtot      =        15.4126
 BOND   =         0.0000  ANGLE   =         0.0000  DIHED      =         0.0000
 1-4 NB =         0.0000  1-4 EEL =       -10.5432  VDWAALS    =         0.0000
 EELEC  =        25.9558  EHBOND  =         0.0000  RESTRAINT  =         0.0000
 EKCMT  =         0.0000  VIRIAL  =         0.0000  VOLUME     =         0.0000
                                                    Density    =         0.0000
 DV/DL  =        15.4126
 ------------------------------------------------------------------------------

      A V E R A G E S   O V E R    1000 S T E P S

 NSTEP =     2000   TIME(PS) =     204.000  TEMP(K) =   299.62  PRESS =  -900.4
 Etot   =    -64065.6784  EKtot   =     12412.3733  EPtot      =    -76478.0517
 BOND   =         1.1223  ANGLE   =         5.6693  DIHED      =         5.2605
 1-4 NB =         0.5243  1-4 EEL =         0.5049  VDWAALS    =     14251.3539
 EELEC  =    -90742.4870  EHBOND  =         0.0000  RESTRAINT  =         0.0000
 EKCMT  =      6209.1667  VIRIAL  =     10571.4121  VOLUME     =    224364.3166
                                                    Density    =         0.9266
 DV/DL  =         9.9418
 ------------------------------------------------------------------------------

      R M S  F L U C T U A T I O N S

 NSTEP =     2000   TIME(PS) =     204.000  TEMP(K) =     1.80  PRESS =   108.5
 Etot   =        89.5593  EKtot   =        74.7639  EPtot      =        93.4287
 BOND   =         0.7735  ANGLE   =         1.1286  DIHED      =         0.0644
 1-4 NB =         0.3369  1-4 EEL =         0.0085  VDWAALS    =       103.4480
 EELEC  =       146.2516  EHBOND  =         0.0000  RESTRAINT  =         0.0000
 EKCMT  =        58.3953  VIRIAL  =       549.5585  VOLUME     =      1036.0062
                                                    Density    =         0.0043
 DV/DL  =         8.3783
 ------------------------------------------------------------------------------

      A V E R A G E S   O V E R    1000 S T E P S

 NSTEP =     2000   TIME(PS) =     204.000  TEMP(K) =   299.62  PRESS =  -900.4
 Etot   =    -64065.6784  EKtot   =     12412.3733  EPtot      =    -76478.0517
 BOND   =         1.1223  ANGLE   =         5.6693  DIHED      =         5.2605
 1-4 NB =         0.5243  1-4 EEL =         0.5049  VDWAALS    =     14251.3539
 EELEC  =    -90742.4870  EHBOND  =         0.0000  RESTRAINT  =         0.0000
 EKCMT  =      6209.1667  VIRIAL  =     10571.4121  VOLUME     =    224364.3166
                                                    Density    =         0.9266
 DV/DL  =         9.9418
 ------------------------------------------------------------------------------

      R M S  F L U C T U A T I O N S

 NSTEP =     2000   TIME(PS) =     204.000  TEMP(K) =     1.80  PRESS =   108.5
 Etot   =        89.5593  EKtot   =        74.7639  EPtot      =        93.4287
 BOND   =         0.7735  ANGLE   =         1.1286  DIHED      =         0.0644
 1-4 NB =         0.3369  1-4 EEL =         0.0085  VDWAALS    =       103.4480
 EELEC  =       146.2516  EHBOND  =         0.0000  RESTRAINT  =         0.0000
 EKCMT  =        58.3953  VIRIAL  =       549.5585  VOLUME     =      1036.0062
                                                    Density    =         0.0043
 DV/DL  =         8.3783
 ------------------------------------------------------------------------------

      DV/DL, AVERAGES OVER    1000 STEPS

 NSTEP =     2000   TIME(PS) =     204.000  TEMP(K) =     1.80  PRESS =     0.0
 Etot   =         0.0000  EKtot   =         0.0000  EPtot      =         9.9418
 BOND   =         0.0000  ANGLE   =         0.0000  DIHED      =         0.0000
 1-4 NB =         0.0000  1-4 EEL =       -10.5325  VDWAALS    =         0.0000
 EELEC  =        20.4743  EHBOND  =         0.0000  RESTRAINT  =         0.0000
 EKCMT  =         0.0000  VIRIAL  =         0.0000  VOLUME     =         0.0000
                                                    Density    =         0.0000
 DV/DL  =         9.9418
 ------------------------------------------------------------------------------

      A V E R A G E S   O V E R    1000 S T E P S

 NSTEP =   500000   TIME(PS) =    1200.000  TEMP(K) =   301.58  PRESS =    24.0
 Etot   =    -64653.3397  EKtot   =     12493.5334  EPtot      =    -77146.8731
 BOND   =         0.9979  ANGLE   =         4.3654  DIHED      =         5.2464
 1-4 NB =         0.4642  1-4 EEL =         0.5043  VDWAALS    =     14556.4480
 EELEC  =    -91714.8994  EHBOND  =         0.0000  RESTRAINT  =         0.0000
 EKCMT  =      6258.6826  VIRIAL  =      6150.6287  VOLUME     =    208772.2993
                                                    Density    =         0.9958
 DV/DL  =        13.4028
 ------------------------------------------------------------------------------

      R M S  F L U C T U A T I O N S

 NSTEP =   500000   TIME(PS) =    1200.000  TEMP(K) =     1.79  PRESS =   113.8
 Etot   =        84.2001  EKtot   =        74.2061  EPtot      =        85.6578
 BOND   =         0.6989  ANGLE   =         0.7609  DIHED      =         0.0420
 1-4 NB =         0.2343  1-4 EEL =         0.0066  VDWAALS    =        99.0030
 EELEC  =       126.7550  EHBOND  =         0.0000  RESTRAINT  =         0.0000
 EKCMT  =        47.4449  VIRIAL  =       520.0118  VOLUME     =        42.6850
                                                    Density    =         0.0002
 DV/DL  =         8.4111
 ------------------------------------------------------------------------------

      A V E R A G E S   O V E R    1000 S T E P S

 NSTEP =   500000   TIME(PS) =    1200.000  TEMP(K) =   301.58  PRESS =    24.0
 Etot   =    -64653.3397  EKtot   =     12493.5334  EPtot      =    -77146.8731
 BOND   =         0.9979  ANGLE   =         4.3654  DIHED      =         5.2464
 1-4 NB =         0.4642  1-4 EEL =         0.5043  VDWAALS    =     14556.4480
 EELEC  =    -91714.8994  EHBOND  =         0.0000  RESTRAINT  =         0.0000
 EKCMT  =      6258.6826  VIRIAL  =      6150.6287  VOLUME     =    208772.2993
                                                    Density    =         0.9958
 DV/DL  =        13.4028
 ------------------------------------------------------------------------------

      R M S  F L U C T U A T I O N S

 NSTEP =   500000   TIME(PS) =    1200.000  TEMP(K) =     1.79  PRESS =   113.8
 Etot   =        84.2001  EKtot   =        74.2061  EPtot      =        85.6578
 BOND   =         0.6989  ANGLE   =         0.7609  DIHED      =         0.0420
 1-4 NB =         0.2343  1-4 EEL =         0.0066  VDWAALS    =        99.0030
 EELEC  =       126.7550  EHBOND  =         0.0000  RESTRAINT  =         0.0000
 EKCMT  =        47.4449  VIRIAL  =       520.0118  VOLUME     =        42.6850
                                                    Density    =         0.0002
 DV/DL  =         8.4111
 ------------------------------------------------------------------------------

      DV/DL, AVERAGES OVER    1000 STEPS

 NSTEP =   500000   TIME(PS) =    1200.000  TEMP(K) =     1.79  PRESS =     0.0
 Etot   =         0.0000  EKtot   =         0.0000  EPtot      =        13.4028
 BOND   =         0.0000  ANGLE   =         0.0000  DIHED      =         0.0000
 1-4 NB =         0.0000  1-4 EEL =       -10.5204  VDWAALS    =         0.0000
 EELEC  =        23.9232  EHBOND  =         0.0000  RESTRAINT  =         0.0000
 EKCMT  =         0.0000  VIRIAL  =         0.0000  VOLUME     =         0.0000
                                                    Density    =         0.0000
 DV/DL  =        13.4028
 ------------------------------------------------------------------------------

      A V E R A G E S   O V E R  500000 S T E P S

 NSTEP =   500000   TIME(PS) =    1200.000  TEMP(K) =   300.14  PRESS =   -10.3
 Etot   =    -64855.9980  EKtot   =     12433.7317  EPtot      =    -77289.7297
 BOND   =         0.9340  ANGLE   =         5.1933  DIHED      =         5.2797
 1-4 NB =         0.5003  1-4 EEL =         0.5048  VDWAALS    =     14599.3319
 EELEC  =    -91901.4738  EHBOND  =         0.0000  RESTRAINT  =         0.0000
 EKCMT  =      6239.2483  VIRIAL  =      6288.4443  VOLUME     =    208777.7006
                                                    Density    =         0.9958
 DV/DL  =        12.8927
 ------------------------------------------------------------------------------

      R M S  F L U C T U A T I O N S

 NSTEP =   500000   TIME(PS) =    1200.000  TEMP(K) =     2.08  PRESS =   166.8
 Etot   =       180.7111  EKtot   =        86.3686  EPtot      =       156.5552
 BOND   =         0.7705  ANGLE   =         1.2407  DIHED      =         0.0879
 1-4 NB =         0.2981  1-4 EEL =         0.0083  VDWAALS    =       148.2650
 EELEC  =       256.1019  EHBOND  =         0.0000  RESTRAINT  =         0.0000
 EKCMT  =        60.7796  VIRIAL  =       766.2159  VOLUME     =      1427.0638
                                                    Density    =         0.0064
 DV/DL  =         8.8321
 ------------------------------------------------------------------------------

      A V E R A G E S   O V E R  500000 S T E P S

 NSTEP =   500000   TIME(PS) =    1200.000  TEMP(K) =   300.14  PRESS =   -10.3
 Etot   =    -64855.9980  EKtot   =     12433.7317  EPtot      =    -77289.7297
 BOND   =         0.9340  ANGLE   =         5.1933  DIHED      =         5.2797
 1-4 NB =         0.5003  1-4 EEL =         0.5048  VDWAALS    =     14599.3319
 EELEC  =    -91901.4738  EHBOND  =         0.0000  RESTRAINT  =         0.0000
 EKCMT  =      6239.2483  VIRIAL  =      6288.4443  VOLUME     =    208777.7006
                                                    Density    =         0.9958
 DV/DL  =        12.8927
 ------------------------------------------------------------------------------

      R M S  F L U C T U A T I O N S

 NSTEP =   500000   TIME(PS) =    1200.000  TEMP(K) =     2.08  PRESS =   166.8
 Etot   =       180.7111  EKtot   =        86.3686  EPtot      =       156.5552
 BOND   =         0.7705  ANGLE   =         1.2407  DIHED      =         0.0879
 1-4 NB =         0.2981  1-4 EEL =         0.0083  VDWAALS    =       148.2650
 EELEC  =       256.1019  EHBOND  =         0.0000  RESTRAINT  =         0.0000
 EKCMT  =        60.7796  VIRIAL  =       766.2159  VOLUME     =      1427.0638
                                                    Density    =         0.0064
 DV/DL  =         8.8321
 ------------------------------------------------------------------------------

      DV/DL, AVERAGES OVER  500000 STEPS

 NSTEP =   500000   TIME(PS) =    1200.000  TEMP(K) =     2.08  PRESS =     0.0
 Etot   =         0.0000  EKtot   =         0.0000  EPtot      =        12.8927
 BOND   =         0.0000  ANGLE   =         0.0000  DIHED      =         0.0000
 1-4 NB =         0.0000  1-4 EEL =       -10.5308  VDWAALS    =         0.0000
 EELEC  =        23.4236  EHBOND  =         0.0000  RESTRAINT  =         0.0000
 EKCMT  =         0.0000  VIRIAL  =         0.0000  VOLUME     =         0.0000
                                                    Density    =         0.0000
 DV/DL  =        12.8927
 ------------------------------------------------------------------------------
