-------------------------------------------------------
          Amber 18 PMEMD                              2018
          -------------------------------------------------------

  [-O]verwriting output

File Assignments:

 Here is the input file:

 &cntrl
   nstlim=500000, nscm=1000,
   ntx=5, irest=1, ntpr=1000,
   tempi=300.0, temp0=300.0, ntt=3, gamma_ln=2.0,
   ntp=1, pres0=1.01325, taup=5.0,
   ntb=2, igb=0, cut=10.0,
   dt=0.002, ig=-1,
   ntc=2, ntf=2,
   iwrap=0,
   ntwr=1000, ntwx=50000, ntave=1000,
   ioutfm=1, ntwv=-1,
   ifsc = 0, icfe=1,
   clambda=0.11505,
   timask1=':1',
   timask2=':2', crgmask = ':2',
/

Note: ig = -1. Setting random seed to   499183 based on wallclock time in
      microseconds.

--------------------------------------------------------------------------------
   1.  RESOURCE   USE:
--------------------------------------------------------------------------------

 getting box info from netcdf restart file
 NATOM  =   20855 NTYPES =       6 NBONH =   20847 MBONA  =       6
 NTHETH =      12 MTHETA =       6 NPHIH =      24 MPHIA  =       2
 NHPARM =       0 NPARM  =       0 NNB   =   27832 NRES   =    6949
 NBONA  =       6 NTHETA =       6 NPHIA =       2 NUMBND =       5
 NUMANG =       4 NPTRA  =       3 NATYP =       6 NPHB   =       1
 IFBOX  =       2 NMXRS  =       7 IFCAP =       0 NEXTRA =       0
 NCOPY  =       0

     BOX TYPE: TRUNCATED OCTAHEDRON

--------------------------------------------------------------------------------
   2.  CONTROL  DATA  FOR  THE  RUN
--------------------------------------------------------------------------------

default_name

General flags:
     imin    =       0, nmropt  =       0

Nature and format of input:
     ntx     =       5, irest   =       1, ntrx    =       1

Nature and format of output:
     ntxo    =       2, ntpr    =    1000, ntrx    =       1, ntwr    =    1000
     iwrap   =       0, ntwx    =   50000, ntwv    =      -1, ntwe    =       0
     ioutfm  =       1, ntwprt  =       0, idecomp =       0, rbornstat=      0

Potential function:
     ntf     =       2, ntb     =       2, igb     =       0, nsnb    =      25
     ipol    =       0, gbsa    =       0, iesp    =       0
     dielc   =   1.00000, cut     =  10.00000, intdiel =   1.00000

Frozen or restrained atoms:
     ibelly  =       0, ntr     =       0

Molecular dynamics:
     nstlim  =    500000, nscm    =      1000, nrespa  =         1
     t       =   0.00000, dt      =   0.00200, vlimit  =  -1.00000

Langevin dynamics temperature regulation:
     ig      =  499183
     temp0   = 300.00000, tempi   = 300.00000, gamma_ln=   2.00000

Pressure regulation:
     ntp     =       1
     pres0   =   1.01325, comp    =  44.60000, taup    =   5.00000

SHAKE:
     ntc     =       2, jfastw  =       0
     tol     =   0.00001

Free energy options:
     icfe    =       1, ifsc    =       0, klambda =       1
     clambda =  0.1150, scalpha =  0.5000, scbeta  = 12.0000
     sceeorder =       2
     dynlmb =  0.0000 logdvdl =       0

Ewald parameters:
     verbose =       0, ew_type =       0, nbflag  =       1, use_pme =       1
     vdwmeth =       1, eedmeth =       1, netfrc  =       1
     Box X =   66.953   Box Y =   66.953   Box Z =   66.953
     Alpha =  109.471   Beta  =  109.471   Gamma =  109.471
     NFFT1 =   64       NFFT2 =   64       NFFT3 =   64
     Cutoff=   10.000   Tol   =0.100E-04
     Ewald Coefficient =  0.27511
     Interpolation order =    4
     TI Mask 1 :1; matches      7 atoms
     TI Mask 2 :2; matches      7 atoms
     TI region 1:   20848 atoms
     TI region 2:   20848 atoms
Removing charge of      -0.8188 from atom       8
Removing charge of      -0.8188 from atom       9
Removing charge of       0.8054 from atom      10
Removing charge of      -0.1021 from atom      11
Removing charge of      -0.0219 from atom      12
Removing charge of      -0.0219 from atom      13
Removing charge of      -0.0219 from atom      14
Total charge of  -0.99999900 removed from       7 atoms
     Checking for mismatched coordinates.

--------------------------------------------------------------------------------
   3.  ATOMIC COORDINATES AND VELOCITIES
--------------------------------------------------------------------------------

default_name
 begin time read from input coords =   200.000 ps

 Number of triangulated 3-point waters found:     6947

     Sum of charges for TI region  1 =  -0.99999900
     Assuming uniform neutralizing plasma

     Sum of charges for TI region  2 =   0.00000000
     Forcing neutrality...

--------------------------------------------------------------------------------
   4.  RESULTS
 NSTEP =     1000   TIME(PS) =     202.000  TEMP(K) =   298.54  PRESS =  -596.6
 Etot   =    -53305.8136  EKtot   =     12369.3566  EPtot      =    -65675.1702
 BOND   =         0.5874  ANGLE   =         3.9183  DIHED      =         5.2363
 1-4 NB =         0.1578  1-4 EEL =         9.1190  VDWAALS    =      9695.2626
 EELEC  =    -75389.4515  EHBOND  =         0.0000  RESTRAINT  =         0.0000
 EKCMT  =      6259.4300  VIRIAL  =      9202.8644  VOLUME     =    228489.7185
                                                    Density    =         0.9100
 DV/DL  =       148.6865
 ------------------------------------------------------------------------------

      A V E R A G E S   O V E R    1000 S T E P S

 NSTEP =     1000   TIME(PS) =     202.000  TEMP(K) =   299.40  PRESS =  -621.1
 Etot   =    -53053.1067  EKtot   =     12404.9131  EPtot      =    -65458.0198
 BOND   =         0.9569  ANGLE   =         5.2432  DIHED      =         5.2847
 1-4 NB =         0.3526  1-4 EEL =         9.2338  VDWAALS    =      9658.6517
 EELEC  =    -75137.7427  EHBOND  =         0.0000  RESTRAINT  =         0.0000
 EKCMT  =      6226.5804  VIRIAL  =      9307.6261  VOLUME     =    229763.4938
                                                    Density    =         0.9050
 DV/DL  =       146.6032
 ------------------------------------------------------------------------------

      R M S  F L U C T U A T I O N S

 NSTEP =     1000   TIME(PS) =     202.000  TEMP(K) =     1.92  PRESS =    97.2
 Etot   =       131.3961  EKtot   =        79.6608  EPtot      =       119.8953
 BOND   =         0.7101  ANGLE   =         1.3848  DIHED      =         0.0813
 1-4 NB =         0.1825  1-4 EEL =         0.1395  VDWAALS    =       100.2590
 EELEC  =       164.8999  EHBOND  =         0.0000  RESTRAINT  =         0.0000
 EKCMT  =        54.2419  VIRIAL  =       477.1586  VOLUME     =       741.1019
                                                    Density    =         0.0029
 DV/DL  =         9.0491
 ------------------------------------------------------------------------------

      A V E R A G E S   O V E R    1000 S T E P S

 NSTEP =     1000   TIME(PS) =     202.000  TEMP(K) =   299.40  PRESS =  -621.1
 Etot   =    -53053.1067  EKtot   =     12404.9131  EPtot      =    -65458.0198
 BOND   =         0.9569  ANGLE   =         5.2432  DIHED      =         5.2847
 1-4 NB =         0.3526  1-4 EEL =         9.2338  VDWAALS    =      9658.6517
 EELEC  =    -75137.7427  EHBOND  =         0.0000  RESTRAINT  =         0.0000
 EKCMT  =      6226.5804  VIRIAL  =      9307.6261  VOLUME     =    229763.4938
                                                    Density    =         0.9050
 DV/DL  =       146.6032
 ------------------------------------------------------------------------------

      R M S  F L U C T U A T I O N S

 NSTEP =     1000   TIME(PS) =     202.000  TEMP(K) =     1.92  PRESS =    97.2
 Etot   =       131.3961  EKtot   =        79.6608  EPtot      =       119.8953
 BOND   =         0.7101  ANGLE   =         1.3848  DIHED      =         0.0813
 1-4 NB =         0.1825  1-4 EEL =         0.1395  VDWAALS    =       100.2590
 EELEC  =       164.8999  EHBOND  =         0.0000  RESTRAINT  =         0.0000
 EKCMT  =        54.2419  VIRIAL  =       477.1586  VOLUME     =       741.1019
                                                    Density    =         0.0029
 DV/DL  =         9.0491
 ------------------------------------------------------------------------------

      DV/DL, AVERAGES OVER    1000 STEPS

 NSTEP =     1000   TIME(PS) =     202.000  TEMP(K) =     1.92  PRESS =     0.0
 Etot   =         0.0000  EKtot   =         0.0000  EPtot      =       146.6032
 BOND   =         0.0000  ANGLE   =         0.0000  DIHED      =         0.0000
 1-4 NB =         0.0000  1-4 EEL =       -10.4343  VDWAALS    =         0.0000
 EELEC  =       157.0374  EHBOND  =         0.0000  RESTRAINT  =         0.0000
 EKCMT  =         0.0000  VIRIAL  =         0.0000  VOLUME     =         0.0000
                                                    Density    =         0.0000
 DV/DL  =       146.6032
 ------------------------------------------------------------------------------

      A V E R A G E S   O V E R    1000 S T E P S

 NSTEP =     2000   TIME(PS) =     204.000  TEMP(K) =   299.21  PRESS =  -531.5
 Etot   =    -53295.9412  EKtot   =     12397.3031  EPtot      =    -65693.2443
 BOND   =         0.5746  ANGLE   =         4.6987  DIHED      =         5.3063
 1-4 NB =         0.3413  1-4 EEL =         9.2339  VDWAALS    =      9744.0956
 EELEC  =    -75457.4947  EHBOND  =         0.0000  RESTRAINT  =         0.0000
 EKCMT  =      6249.8781  VIRIAL  =      8859.3727  VOLUME     =    227383.2101
                                                    Density    =         0.9145
 DV/DL  =       149.6059
 ------------------------------------------------------------------------------

      R M S  F L U C T U A T I O N S

 NSTEP =     2000   TIME(PS) =     204.000  TEMP(K) =     1.78  PRESS =   109.0
 Etot   =       141.2206  EKtot   =        73.6625  EPtot      =       120.9130
 BOND   =         0.5085  ANGLE   =         0.8462  DIHED      =         0.0951
 1-4 NB =         0.1802  1-4 EEL =         0.1162  VDWAALS    =       111.8220
 EELEC  =       188.2377  EHBOND  =         0.0000  RESTRAINT  =         0.0000
 EKCMT  =        50.9801  VIRIAL  =       543.0146  VOLUME     =       612.2480
                                                    Density    =         0.0025
 DV/DL  =         8.1999
 ------------------------------------------------------------------------------

      A V E R A G E S   O V E R    1000 S T E P S

 NSTEP =     2000   TIME(PS) =     204.000  TEMP(K) =   299.21  PRESS =  -531.5
 Etot   =    -53295.9412  EKtot   =     12397.3031  EPtot      =    -65693.2443
 BOND   =         0.5746  ANGLE   =         4.6987  DIHED      =         5.3063
 1-4 NB =         0.3413  1-4 EEL =         9.2339  VDWAALS    =      9744.0956
 EELEC  =    -75457.4947  EHBOND  =         0.0000  RESTRAINT  =         0.0000
 EKCMT  =      6249.8781  VIRIAL  =      8859.3727  VOLUME     =    227383.2101
                                                    Density    =         0.9145
 DV/DL  =       149.6059
 ------------------------------------------------------------------------------

      R M S  F L U C T U A T I O N S

 NSTEP =     2000   TIME(PS) =     204.000  TEMP(K) =     1.78  PRESS =   109.0
 Etot   =       141.2206  EKtot   =        73.6625  EPtot      =       120.9130
 BOND   =         0.5085  ANGLE   =         0.8462  DIHED      =         0.0951
 1-4 NB =         0.1802  1-4 EEL =         0.1162  VDWAALS    =       111.8220
 EELEC  =       188.2377  EHBOND  =         0.0000  RESTRAINT  =         0.0000
 EKCMT  =        50.9801  VIRIAL  =       543.0146  VOLUME     =       612.2480
                                                    Density    =         0.0025
 DV/DL  =         8.1999
 ------------------------------------------------------------------------------

      DV/DL, AVERAGES OVER    1000 STEPS

 NSTEP =     2000   TIME(PS) =     204.000  TEMP(K) =     1.78  PRESS =     0.0
 Etot   =         0.0000  EKtot   =         0.0000  EPtot      =       149.6059
 BOND   =         0.0000  ANGLE   =         0.0000  DIHED      =         0.0000
 1-4 NB =         0.0000  1-4 EEL =       -10.4343  VDWAALS    =         0.0000
 EELEC  =       160.0402  EHBOND  =         0.0000  RESTRAINT  =         0.0000
 EKCMT  =         0.0000  VIRIAL  =         0.0000  VOLUME     =         0.0000
                                                    Density    =         0.0000
 DV/DL  =       149.6059
 ------------------------------------------------------------------------------

      A V E R A G E S   O V E R    1000 S T E P S

 NSTEP =   500000   TIME(PS) =    1200.000  TEMP(K) =   300.83  PRESS =   -43.2
 Etot   =    -53756.7577  EKtot   =     12464.3196  EPtot      =    -66221.0773
 BOND   =         1.1407  ANGLE   =         5.4830  DIHED      =         5.2929
 1-4 NB =         0.3449  1-4 EEL =         9.2284  VDWAALS    =      9847.0525
 EELEC  =    -76089.6197  EHBOND  =         0.0000  RESTRAINT  =         0.0000
 EKCMT  =      6230.4602  VIRIAL  =      6427.8091  VOLUME     =    211598.7332
                                                    Density    =         0.9827
 DV/DL  =       145.9201
 ------------------------------------------------------------------------------

      R M S  F L U C T U A T I O N S

 NSTEP =   500000   TIME(PS) =    1200.000  TEMP(K) =     1.72  PRESS =    94.3
 Etot   =       110.0105  EKtot   =        71.1444  EPtot      =       104.5879
 BOND   =         0.9446  ANGLE   =         1.3865  DIHED      =         0.1000
 1-4 NB =         0.2075  1-4 EEL =         0.1506  VDWAALS    =        90.6823
 EELEC  =       152.6356  EHBOND  =         0.0000  RESTRAINT  =         0.0000
 EKCMT  =        51.1202  VIRIAL  =       432.7690  VOLUME     =        51.8005
                                                    Density    =         0.0002
 DV/DL  =         9.3461
 ------------------------------------------------------------------------------

      A V E R A G E S   O V E R    1000 S T E P S

 NSTEP =   500000   TIME(PS) =    1200.000  TEMP(K) =   300.83  PRESS =   -43.2
 Etot   =    -53756.7577  EKtot   =     12464.3196  EPtot      =    -66221.0773
 BOND   =         1.1407  ANGLE   =         5.4830  DIHED      =         5.2929
 1-4 NB =         0.3449  1-4 EEL =         9.2284  VDWAALS    =      9847.0525
 EELEC  =    -76089.6197  EHBOND  =         0.0000  RESTRAINT  =         0.0000
 EKCMT  =      6230.4602  VIRIAL  =      6427.8091  VOLUME     =    211598.7332
                                                    Density    =         0.9827
 DV/DL  =       145.9201
 ------------------------------------------------------------------------------

      R M S  F L U C T U A T I O N S

 NSTEP =   500000   TIME(PS) =    1200.000  TEMP(K) =     1.72  PRESS =    94.3
 Etot   =       110.0105  EKtot   =        71.1444  EPtot      =       104.5879
 BOND   =         0.9446  ANGLE   =         1.3865  DIHED      =         0.1000
 1-4 NB =         0.2075  1-4 EEL =         0.1506  VDWAALS    =        90.6823
 EELEC  =       152.6356  EHBOND  =         0.0000  RESTRAINT  =         0.0000
 EKCMT  =        51.1202  VIRIAL  =       432.7690  VOLUME     =        51.8005
                                                    Density    =         0.0002
 DV/DL  =         9.3461
 ------------------------------------------------------------------------------

      DV/DL, AVERAGES OVER    1000 STEPS

 NSTEP =   500000   TIME(PS) =    1200.000  TEMP(K) =     1.72  PRESS =     0.0
 Etot   =         0.0000  EKtot   =         0.0000  EPtot      =       145.9201
 BOND   =         0.0000  ANGLE   =         0.0000  DIHED      =         0.0000
 1-4 NB =         0.0000  1-4 EEL =       -10.4281  VDWAALS    =         0.0000
 EELEC  =       156.3482  EHBOND  =         0.0000  RESTRAINT  =         0.0000
 EKCMT  =         0.0000  VIRIAL  =         0.0000  VOLUME     =         0.0000
                                                    Density    =         0.0000
 DV/DL  =       145.9201
 ------------------------------------------------------------------------------

      A V E R A G E S   O V E R  500000 S T E P S

 NSTEP =   500000   TIME(PS) =    1200.000  TEMP(K) =   300.08  PRESS =    -8.9
 Etot   =    -53887.9666  EKtot   =     12433.1716  EPtot      =    -66321.1382
 BOND   =         0.9505  ANGLE   =         5.3677  DIHED      =         5.2861
 1-4 NB =         0.3539  1-4 EEL =         9.2357  VDWAALS    =      9912.6426
 EELEC  =    -76254.9747  EHBOND  =         0.0000  RESTRAINT  =         0.0000
 EKCMT  =      6235.6832  VIRIAL  =      6278.2704  VOLUME     =    211696.5084
                                                    Density    =         0.9823
 DV/DL  =       150.6673
 ------------------------------------------------------------------------------

      R M S  F L U C T U A T I O N S

 NSTEP =   500000   TIME(PS) =    1200.000  TEMP(K) =     2.09  PRESS =   142.6
 Etot   =       168.7952  EKtot   =        86.6499  EPtot      =       143.3915
 BOND   =         0.7772  ANGLE   =         1.3026  DIHED      =         0.0971
 1-4 NB =         0.2048  1-4 EEL =         0.1435  VDWAALS    =       126.6652
 EELEC  =       218.1024  EHBOND  =         0.0000  RESTRAINT  =         0.0000
 EKCMT  =        60.8604  VIRIAL  =       656.3060  VOLUME     =      1639.6535
                                                    Density    =         0.0072
 DV/DL  =        10.1023
 ------------------------------------------------------------------------------

      A V E R A G E S   O V E R  500000 S T E P S

 NSTEP =   500000   TIME(PS) =    1200.000  TEMP(K) =   300.08  PRESS =    -8.9
 Etot   =    -53887.9666  EKtot   =     12433.1716  EPtot      =    -66321.1382
 BOND   =         0.9505  ANGLE   =         5.3677  DIHED      =         5.2861
 1-4 NB =         0.3539  1-4 EEL =         9.2357  VDWAALS    =      9912.6426
 EELEC  =    -76254.9747  EHBOND  =         0.0000  RESTRAINT  =         0.0000
 EKCMT  =      6235.6832  VIRIAL  =      6278.2704  VOLUME     =    211696.5084
                                                    Density    =         0.9823
 DV/DL  =       150.6673
 ------------------------------------------------------------------------------

      R M S  F L U C T U A T I O N S

 NSTEP =   500000   TIME(PS) =    1200.000  TEMP(K) =     2.09  PRESS =   142.6
 Etot   =       168.7952  EKtot   =        86.6499  EPtot      =       143.3915
 BOND   =         0.7772  ANGLE   =         1.3026  DIHED      =         0.0971
 1-4 NB =         0.2048  1-4 EEL =         0.1435  VDWAALS    =       126.6652
 EELEC  =       218.1024  EHBOND  =         0.0000  RESTRAINT  =         0.0000
 EKCMT  =        60.8604  VIRIAL  =       656.3060  VOLUME     =      1639.6535
                                                    Density    =         0.0072
 DV/DL  =        10.1023
 ------------------------------------------------------------------------------

      DV/DL, AVERAGES OVER  500000 STEPS

 NSTEP =   500000   TIME(PS) =    1200.000  TEMP(K) =     2.09  PRESS =     0.0
 Etot   =         0.0000  EKtot   =         0.0000  EPtot      =       150.6673
 BOND   =         0.0000  ANGLE   =         0.0000  DIHED      =         0.0000
 1-4 NB =         0.0000  1-4 EEL =       -10.4364  VDWAALS    =         0.0000
 EELEC  =       161.1037  EHBOND  =         0.0000  RESTRAINT  =         0.0000
 EKCMT  =         0.0000  VIRIAL  =         0.0000  VOLUME     =         0.0000
                                                    Density    =         0.0000
 DV/DL  =       150.6673
 ------------------------------------------------------------------------------
