-------------------------------------------------------
          Amber 18 PMEMD                              2018
          -------------------------------------------------------

  [-O]verwriting output

File Assignments:

 Here is the input file:

 &cntrl
   nstlim=500000, nscm=1000,
   ntx=5, irest=1, ntpr=1000,
   tempi=300.0, temp0=300.0, ntt=3, gamma_ln=2.0,
   ntp=1, pres0=1.01325, taup=5.0,
   ntb=2, igb=0, cut=10.0,
   dt=0.002, ig=-1,
   ntc=2, ntf=2,
   iwrap=0,
   ntwr=1000, ntwx=50000, ntave=1000,
   ioutfm=1, ntwv=-1,
   ifsc = 0, icfe=1,
   clambda=0.31608,
   timask1=':1',
   timask2=':2', crgmask = ':2',
/

Note: ig = -1. Setting random seed to   735252 based on wallclock time in
      microseconds.

--------------------------------------------------------------------------------
   1.  RESOURCE   USE:
--------------------------------------------------------------------------------

 getting box info from netcdf restart file
 NATOM  =   20852 NTYPES =       6 NBONH =   20844 MBONA  =       6
 NTHETH =      12 MTHETA =       6 NPHIH =      24 MPHIA  =       2
 NHPARM =       0 NPARM  =       0 NNB   =   27828 NRES   =    6948
 NBONA  =       6 NTHETA =       6 NPHIA =       2 NUMBND =       5
 NUMANG =       4 NPTRA  =       3 NATYP =       6 NPHB   =       1
 IFBOX  =       2 NMXRS  =       7 IFCAP =       0 NEXTRA =       0
 NCOPY  =       0

     BOX TYPE: TRUNCATED OCTAHEDRON

--------------------------------------------------------------------------------
   2.  CONTROL  DATA  FOR  THE  RUN
--------------------------------------------------------------------------------

default_name

General flags:
     imin    =       0, nmropt  =       0

Nature and format of input:
     ntx     =       5, irest   =       1, ntrx    =       1

Nature and format of output:
     ntxo    =       2, ntpr    =    1000, ntrx    =       1, ntwr    =    1000
     iwrap   =       0, ntwx    =   50000, ntwv    =      -1, ntwe    =       0
     ioutfm  =       1, ntwprt  =       0, idecomp =       0, rbornstat=      0

Potential function:
     ntf     =       2, ntb     =       2, igb     =       0, nsnb    =      25
     ipol    =       0, gbsa    =       0, iesp    =       0
     dielc   =   1.00000, cut     =  10.00000, intdiel =   1.00000

Frozen or restrained atoms:
     ibelly  =       0, ntr     =       0

Molecular dynamics:
     nstlim  =    500000, nscm    =      1000, nrespa  =         1
     t       =   0.00000, dt      =   0.00200, vlimit  =  -1.00000

Langevin dynamics temperature regulation:
     ig      =  735252
     temp0   = 300.00000, tempi   = 300.00000, gamma_ln=   2.00000

Pressure regulation:
     ntp     =       1
     pres0   =   1.01325, comp    =  44.60000, taup    =   5.00000

SHAKE:
     ntc     =       2, jfastw  =       0
     tol     =   0.00001

Free energy options:
     icfe    =       1, ifsc    =       0, klambda =       1
     clambda =  0.3161, scalpha =  0.5000, scbeta  = 12.0000
     sceeorder =       2
     dynlmb =  0.0000 logdvdl =       0

Ewald parameters:
     verbose =       0, ew_type =       0, nbflag  =       1, use_pme =       1
     vdwmeth =       1, eedmeth =       1, netfrc  =       1
     Box X =   66.953   Box Y =   66.953   Box Z =   66.953
     Alpha =  109.471   Beta  =  109.471   Gamma =  109.471
     NFFT1 =   64       NFFT2 =   64       NFFT3 =   64
     Cutoff=   10.000   Tol   =0.100E-04
     Ewald Coefficient =  0.27511
     Interpolation order =    4
     TI Mask 1 :1; matches      7 atoms
     TI Mask 2 :2; matches      7 atoms
     TI region 1:   20845 atoms
     TI region 2:   20845 atoms
Removing charge of      -0.8188 from atom       8
Removing charge of      -0.8188 from atom       9
Removing charge of       0.8054 from atom      10
Removing charge of      -0.1021 from atom      11
Removing charge of      -0.0219 from atom      12
Removing charge of      -0.0219 from atom      13
Removing charge of      -0.0219 from atom      14
Total charge of  -0.99999900 removed from       7 atoms
     Checking for mismatched coordinates.

--------------------------------------------------------------------------------
   3.  ATOMIC COORDINATES AND VELOCITIES
--------------------------------------------------------------------------------

default_name
 begin time read from input coords =   200.000 ps

 Number of triangulated 3-point waters found:     6946

     Sum of charges for TI region  1 =  -1.00000662
     Assuming uniform neutralizing plasma

     Sum of charges for TI region  2 =  -0.00000762
     Forcing neutrality...

--------------------------------------------------------------------------------
   4.  RESULTS
 NSTEP =     1000   TIME(PS) =     202.000  TEMP(K) =   297.84  PRESS = -1097.9
 Etot   =    -64239.9750  EKtot   =     12338.6800  EPtot      =    -76578.6550
 BOND   =         2.0082  ANGLE   =         5.3084  DIHED      =         5.2471
 1-4 NB =         0.2377  1-4 EEL =         7.0695  VDWAALS    =     14137.2415
 EELEC  =    -90735.7674  EHBOND  =         0.0000  RESTRAINT  =         0.0000
 EKCMT  =      6209.7159  VIRIAL  =     11572.3873  VOLUME     =    226216.2857
                                                    Density    =         0.9190
 DV/DL  =       101.2309
 ------------------------------------------------------------------------------

      A V E R A G E S   O V E R    1000 S T E P S

 NSTEP =     1000   TIME(PS) =     202.000  TEMP(K) =   298.35  PRESS = -1182.1
 Etot   =    -63966.7367  EKtot   =     12359.8881  EPtot      =    -76326.6249
 BOND   =         1.0666  ANGLE   =         5.9603  DIHED      =         5.2807
 1-4 NB =         0.4371  1-4 EEL =         7.1651  VDWAALS    =     14058.1505
 EELEC  =    -90404.6853  EHBOND  =         0.0000  RESTRAINT  =         0.0000
 EKCMT  =      6212.8515  VIRIAL  =     12047.8148  VOLUME     =    228561.2713
                                                    Density    =         0.9096
 DV/DL  =       116.3270
 ------------------------------------------------------------------------------

      R M S  F L U C T U A T I O N S

 NSTEP =     1000   TIME(PS) =     202.000  TEMP(K) =     1.69  PRESS =   116.9
 Etot   =       109.8422  EKtot   =        70.1174  EPtot      =       117.7806
 BOND   =         0.7554  ANGLE   =         1.5264  DIHED      =         0.0836
 1-4 NB =         0.2690  1-4 EEL =         0.1263  VDWAALS    =       109.5944
 EELEC  =       170.8847  EHBOND  =         0.0000  RESTRAINT  =         0.0000
 EKCMT  =        58.0039  VIRIAL  =       606.8954  VOLUME     =      1388.9671
                                                    Density    =         0.0055
 DV/DL  =         8.2573
 ------------------------------------------------------------------------------

      A V E R A G E S   O V E R    1000 S T E P S

 NSTEP =     1000   TIME(PS) =     202.000  TEMP(K) =   298.35  PRESS = -1182.1
 Etot   =    -63966.7367  EKtot   =     12359.8881  EPtot      =    -76326.6249
 BOND   =         1.0666  ANGLE   =         5.9603  DIHED      =         5.2807
 1-4 NB =         0.4371  1-4 EEL =         7.1651  VDWAALS    =     14058.1505
 EELEC  =    -90404.6853  EHBOND  =         0.0000  RESTRAINT  =         0.0000
 EKCMT  =      6212.8515  VIRIAL  =     12047.8148  VOLUME     =    228561.2713
                                                    Density    =         0.9096
 DV/DL  =       116.3270
 ------------------------------------------------------------------------------

      R M S  F L U C T U A T I O N S

 NSTEP =     1000   TIME(PS) =     202.000  TEMP(K) =     1.69  PRESS =   116.9
 Etot   =       109.8422  EKtot   =        70.1174  EPtot      =       117.7806
 BOND   =         0.7554  ANGLE   =         1.5264  DIHED      =         0.0836
 1-4 NB =         0.2690  1-4 EEL =         0.1263  VDWAALS    =       109.5944
 EELEC  =       170.8847  EHBOND  =         0.0000  RESTRAINT  =         0.0000
 EKCMT  =        58.0039  VIRIAL  =       606.8954  VOLUME     =      1388.9671
                                                    Density    =         0.0055
 DV/DL  =         8.2573
 ------------------------------------------------------------------------------

      DV/DL, AVERAGES OVER    1000 STEPS

 NSTEP =     1000   TIME(PS) =     202.000  TEMP(K) =     1.69  PRESS =     0.0
 Etot   =         0.0000  EKtot   =         0.0000  EPtot      =       116.3270
 BOND   =         0.0000  ANGLE   =         0.0000  DIHED      =         0.0000
 1-4 NB =         0.0000  1-4 EEL =       -10.4766  VDWAALS    =         0.0000
 EELEC  =       126.8036  EHBOND  =         0.0000  RESTRAINT  =         0.0000
 EKCMT  =         0.0000  VIRIAL  =         0.0000  VOLUME     =         0.0000
                                                    Density    =         0.0000
 DV/DL  =       116.3270
 ------------------------------------------------------------------------------

      A V E R A G E S   O V E R    1000 S T E P S

 NSTEP =     2000   TIME(PS) =     204.000  TEMP(K) =   298.85  PRESS =  -941.2
 Etot   =    -64251.5087  EKtot   =     12380.2553  EPtot      =    -76631.7640
 BOND   =         0.8943  ANGLE   =         5.4675  DIHED      =         5.2961
 1-4 NB =         0.3778  1-4 EEL =         7.1535  VDWAALS    =     14222.6469
 EELEC  =    -90873.5999  EHBOND  =         0.0000  RESTRAINT  =         0.0000
 EKCMT  =      6219.9716  VIRIAL  =     10778.5049  VOLUME     =    224259.5892
                                                    Density    =         0.9271
 DV/DL  =       113.6845
 ------------------------------------------------------------------------------

      R M S  F L U C T U A T I O N S

 NSTEP =     2000   TIME(PS) =     204.000  TEMP(K) =     2.10  PRESS =   131.8
 Etot   =       112.7540  EKtot   =        87.0693  EPtot      =        96.5367
 BOND   =         0.6131  ANGLE   =         1.1614  DIHED      =         0.0931
 1-4 NB =         0.1995  1-4 EEL =         0.0973  VDWAALS    =       122.9299
 EELEC  =       176.2957  EHBOND  =         0.0000  RESTRAINT  =         0.0000
 EKCMT  =        57.5041  VIRIAL  =       636.7513  VOLUME     =      1082.3596
                                                    Density    =         0.0045
 DV/DL  =         9.6608
 ------------------------------------------------------------------------------

      A V E R A G E S   O V E R    1000 S T E P S

 NSTEP =     2000   TIME(PS) =     204.000  TEMP(K) =   298.85  PRESS =  -941.2
 Etot   =    -64251.5087  EKtot   =     12380.2553  EPtot      =    -76631.7640
 BOND   =         0.8943  ANGLE   =         5.4675  DIHED      =         5.2961
 1-4 NB =         0.3778  1-4 EEL =         7.1535  VDWAALS    =     14222.6469
 EELEC  =    -90873.5999  EHBOND  =         0.0000  RESTRAINT  =         0.0000
 EKCMT  =      6219.9716  VIRIAL  =     10778.5049  VOLUME     =    224259.5892
                                                    Density    =         0.9271
 DV/DL  =       113.6845
 ------------------------------------------------------------------------------

      R M S  F L U C T U A T I O N S

 NSTEP =     2000   TIME(PS) =     204.000  TEMP(K) =     2.10  PRESS =   131.8
 Etot   =       112.7540  EKtot   =        87.0693  EPtot      =        96.5367
 BOND   =         0.6131  ANGLE   =         1.1614  DIHED      =         0.0931
 1-4 NB =         0.1995  1-4 EEL =         0.0973  VDWAALS    =       122.9299
 EELEC  =       176.2957  EHBOND  =         0.0000  RESTRAINT  =         0.0000
 EKCMT  =        57.5041  VIRIAL  =       636.7513  VOLUME     =      1082.3596
                                                    Density    =         0.0045
 DV/DL  =         9.6608
 ------------------------------------------------------------------------------

      DV/DL, AVERAGES OVER    1000 STEPS

 NSTEP =     2000   TIME(PS) =     204.000  TEMP(K) =     2.10  PRESS =     0.0
 Etot   =         0.0000  EKtot   =         0.0000  EPtot      =       113.6845
 BOND   =         0.0000  ANGLE   =         0.0000  DIHED      =         0.0000
 1-4 NB =         0.0000  1-4 EEL =       -10.4595  VDWAALS    =         0.0000
 EELEC  =       124.1440  EHBOND  =         0.0000  RESTRAINT  =         0.0000
 EKCMT  =         0.0000  VIRIAL  =         0.0000  VOLUME     =         0.0000
                                                    Density    =         0.0000
 DV/DL  =       113.6845
 ------------------------------------------------------------------------------

      A V E R A G E S   O V E R    1000 S T E P S

 NSTEP =   500000   TIME(PS) =    1200.000  TEMP(K) =   298.49  PRESS =   -53.2
 Etot   =    -64983.4885  EKtot   =     12365.5951  EPtot      =    -77349.0836
 BOND   =         1.2511  ANGLE   =         6.1696  DIHED      =         5.3277
 1-4 NB =         0.4298  1-4 EEL =         7.1631  VDWAALS    =     14532.6137
 EELEC  =    -91902.0385  EHBOND  =         0.0000  RESTRAINT  =         0.0000
 EKCMT  =      6210.8252  VIRIAL  =      6449.8825  VOLUME     =    208326.5593
                                                    Density    =         0.9980
 DV/DL  =       119.4880
 ------------------------------------------------------------------------------

      R M S  F L U C T U A T I O N S

 NSTEP =   500000   TIME(PS) =    1200.000  TEMP(K) =     1.80  PRESS =   135.5
 Etot   =       100.9936  EKtot   =        74.4103  EPtot      =       113.5966
 BOND   =         0.8391  ANGLE   =         1.5345  DIHED      =         0.1465
 1-4 NB =         0.2689  1-4 EEL =         0.1297  VDWAALS    =       138.8564
 EELEC  =       210.2674  EHBOND  =         0.0000  RESTRAINT  =         0.0000
 EKCMT  =        51.4358  VIRIAL  =       606.9825  VOLUME     =        65.1505
                                                    Density    =         0.0003
 DV/DL  =        11.4798
 ------------------------------------------------------------------------------

      A V E R A G E S   O V E R    1000 S T E P S

 NSTEP =   500000   TIME(PS) =    1200.000  TEMP(K) =   298.49  PRESS =   -53.2
 Etot   =    -64983.4885  EKtot   =     12365.5951  EPtot      =    -77349.0836
 BOND   =         1.2511  ANGLE   =         6.1696  DIHED      =         5.3277
 1-4 NB =         0.4298  1-4 EEL =         7.1631  VDWAALS    =     14532.6137
 EELEC  =    -91902.0385  EHBOND  =         0.0000  RESTRAINT  =         0.0000
 EKCMT  =      6210.8252  VIRIAL  =      6449.8825  VOLUME     =    208326.5593
                                                    Density    =         0.9980
 DV/DL  =       119.4880
 ------------------------------------------------------------------------------

      R M S  F L U C T U A T I O N S

 NSTEP =   500000   TIME(PS) =    1200.000  TEMP(K) =     1.80  PRESS =   135.5
 Etot   =       100.9936  EKtot   =        74.4103  EPtot      =       113.5966
 BOND   =         0.8391  ANGLE   =         1.5345  DIHED      =         0.1465
 1-4 NB =         0.2689  1-4 EEL =         0.1297  VDWAALS    =       138.8564
 EELEC  =       210.2674  EHBOND  =         0.0000  RESTRAINT  =         0.0000
 EKCMT  =        51.4358  VIRIAL  =       606.9825  VOLUME     =        65.1505
                                                    Density    =         0.0003
 DV/DL  =        11.4798
 ------------------------------------------------------------------------------

      DV/DL, AVERAGES OVER    1000 STEPS

 NSTEP =   500000   TIME(PS) =    1200.000  TEMP(K) =     1.80  PRESS =     0.0
 Etot   =         0.0000  EKtot   =         0.0000  EPtot      =       119.4880
 BOND   =         0.0000  ANGLE   =         0.0000  DIHED      =         0.0000
 1-4 NB =         0.0000  1-4 EEL =       -10.4737  VDWAALS    =         0.0000
 EELEC  =       129.9616  EHBOND  =         0.0000  RESTRAINT  =         0.0000
 EKCMT  =         0.0000  VIRIAL  =         0.0000  VOLUME     =         0.0000
                                                    Density    =         0.0000
 DV/DL  =       119.4880
 ------------------------------------------------------------------------------

      A V E R A G E S   O V E R  500000 S T E P S

 NSTEP =   500000   TIME(PS) =    1200.000  TEMP(K) =   300.10  PRESS =   -10.6
 Etot   =    -64908.4942  EKtot   =     12432.1491  EPtot      =    -77340.6433
 BOND   =         0.9641  ANGLE   =         5.2442  DIHED      =         5.2824
 1-4 NB =         0.3855  1-4 EEL =         7.1524  VDWAALS    =     14607.5719
 EELEC  =    -91967.2439  EHBOND  =         0.0000  RESTRAINT  =         0.0000
 EKCMT  =      6238.2391  VIRIAL  =      6288.9171  VOLUME     =    208766.3756
                                                    Density    =         0.9959
 DV/DL  =       119.8666
 ------------------------------------------------------------------------------

      R M S  F L U C T U A T I O N S

 NSTEP =   500000   TIME(PS) =    1200.000  TEMP(K) =     2.06  PRESS =   165.4
 Etot   =       166.6088  EKtot   =        85.4043  EPtot      =       145.7830
 BOND   =         0.7870  ANGLE   =         1.2486  DIHED      =         0.0930
 1-4 NB =         0.2226  1-4 EEL =         0.1121  VDWAALS    =       145.9866
 EELEC  =       242.6352  EHBOND  =         0.0000  RESTRAINT  =         0.0000
 EKCMT  =        60.5431  VIRIAL  =       756.6239  VOLUME     =      1457.7588
                                                    Density    =         0.0065
 DV/DL  =        10.7275
 ------------------------------------------------------------------------------

      A V E R A G E S   O V E R  500000 S T E P S

 NSTEP =   500000   TIME(PS) =    1200.000  TEMP(K) =   300.10  PRESS =   -10.6
 Etot   =    -64908.4942  EKtot   =     12432.1491  EPtot      =    -77340.6433
 BOND   =         0.9641  ANGLE   =         5.2442  DIHED      =         5.2824
 1-4 NB =         0.3855  1-4 EEL =         7.1524  VDWAALS    =     14607.5719
 EELEC  =    -91967.2439  EHBOND  =         0.0000  RESTRAINT  =         0.0000
 EKCMT  =      6238.2391  VIRIAL  =      6288.9171  VOLUME     =    208766.3756
                                                    Density    =         0.9959
 DV/DL  =       119.8666
 ------------------------------------------------------------------------------

      R M S  F L U C T U A T I O N S

 NSTEP =   500000   TIME(PS) =    1200.000  TEMP(K) =     2.06  PRESS =   165.4
 Etot   =       166.6088  EKtot   =        85.4043  EPtot      =       145.7830
 BOND   =         0.7870  ANGLE   =         1.2486  DIHED      =         0.0930
 1-4 NB =         0.2226  1-4 EEL =         0.1121  VDWAALS    =       145.9866
 EELEC  =       242.6352  EHBOND  =         0.0000  RESTRAINT  =         0.0000
 EKCMT  =        60.5431  VIRIAL  =       756.6239  VOLUME     =      1457.7588
                                                    Density    =         0.0065
 DV/DL  =        10.7275
 ------------------------------------------------------------------------------

      DV/DL, AVERAGES OVER  500000 STEPS

 NSTEP =   500000   TIME(PS) =    1200.000  TEMP(K) =     2.06  PRESS =     0.0
 Etot   =         0.0000  EKtot   =         0.0000  EPtot      =       119.8666
 BOND   =         0.0000  ANGLE   =         0.0000  DIHED      =         0.0000
 1-4 NB =         0.0000  1-4 EEL =       -10.4580  VDWAALS    =         0.0000
 EELEC  =       130.3245  EHBOND  =         0.0000  RESTRAINT  =         0.0000
 EKCMT  =         0.0000  VIRIAL  =         0.0000  VOLUME     =         0.0000
                                                    Density    =         0.0000
 DV/DL  =       119.8666
 ------------------------------------------------------------------------------
