-------------------------------------------------------
          Amber 18 PMEMD                              2018
          -------------------------------------------------------

  [-O]verwriting output

File Assignments:

 Here is the input file:

 &cntrl
   nstlim=500000, nscm=1000,
   ntx=5, irest=1, ntpr=1000,
   tempi=300.0, temp0=300.0, ntt=3, gamma_ln=2.0,
   ntp=1, pres0=1.01325, taup=5.0,
   ntb=2, igb=0, cut=10.0,
   dt=0.002, ig=-1,
   ntc=2, ntf=2,
   iwrap=0,
   ntwr=1000, ntwx=50000, ntave=1000,
   ioutfm=1, ntwv=-1,
   ifsc = 0, icfe=1,
   clambda=0.43738,
   timask1=':1',
   timask2=':2', crgmask = ':2',
/

Note: ig = -1. Setting random seed to   563038 based on wallclock time in
      microseconds.

--------------------------------------------------------------------------------
   1.  RESOURCE   USE:
--------------------------------------------------------------------------------

 getting box info from netcdf restart file
 NATOM  =   20855 NTYPES =       6 NBONH =   20847 MBONA  =       6
 NTHETH =      12 MTHETA =       6 NPHIH =      24 MPHIA  =       2
 NHPARM =       0 NPARM  =       0 NNB   =   27832 NRES   =    6949
 NBONA  =       6 NTHETA =       6 NPHIA =       2 NUMBND =       5
 NUMANG =       4 NPTRA  =       3 NATYP =       6 NPHB   =       1
 IFBOX  =       2 NMXRS  =       7 IFCAP =       0 NEXTRA =       0
 NCOPY  =       0

     BOX TYPE: TRUNCATED OCTAHEDRON

--------------------------------------------------------------------------------
   2.  CONTROL  DATA  FOR  THE  RUN
--------------------------------------------------------------------------------

default_name

General flags:
     imin    =       0, nmropt  =       0

Nature and format of input:
     ntx     =       5, irest   =       1, ntrx    =       1

Nature and format of output:
     ntxo    =       2, ntpr    =    1000, ntrx    =       1, ntwr    =    1000
     iwrap   =       0, ntwx    =   50000, ntwv    =      -1, ntwe    =       0
     ioutfm  =       1, ntwprt  =       0, idecomp =       0, rbornstat=      0

Potential function:
     ntf     =       2, ntb     =       2, igb     =       0, nsnb    =      25
     ipol    =       0, gbsa    =       0, iesp    =       0
     dielc   =   1.00000, cut     =  10.00000, intdiel =   1.00000

Frozen or restrained atoms:
     ibelly  =       0, ntr     =       0

Molecular dynamics:
     nstlim  =    500000, nscm    =      1000, nrespa  =         1
     t       =   0.00000, dt      =   0.00200, vlimit  =  -1.00000

Langevin dynamics temperature regulation:
     ig      =  563038
     temp0   = 300.00000, tempi   = 300.00000, gamma_ln=   2.00000

Pressure regulation:
     ntp     =       1
     pres0   =   1.01325, comp    =  44.60000, taup    =   5.00000

SHAKE:
     ntc     =       2, jfastw  =       0
     tol     =   0.00001

Free energy options:
     icfe    =       1, ifsc    =       0, klambda =       1
     clambda =  0.4374, scalpha =  0.5000, scbeta  = 12.0000
     sceeorder =       2
     dynlmb =  0.0000 logdvdl =       0

Ewald parameters:
     verbose =       0, ew_type =       0, nbflag  =       1, use_pme =       1
     vdwmeth =       1, eedmeth =       1, netfrc  =       1
     Box X =   66.953   Box Y =   66.953   Box Z =   66.953
     Alpha =  109.471   Beta  =  109.471   Gamma =  109.471
     NFFT1 =   64       NFFT2 =   64       NFFT3 =   64
     Cutoff=   10.000   Tol   =0.100E-04
     Ewald Coefficient =  0.27511
     Interpolation order =    4
     TI Mask 1 :1; matches      7 atoms
     TI Mask 2 :2; matches      7 atoms
     TI region 1:   20848 atoms
     TI region 2:   20848 atoms
Removing charge of      -0.8188 from atom       8
Removing charge of      -0.8188 from atom       9
Removing charge of       0.8054 from atom      10
Removing charge of      -0.1021 from atom      11
Removing charge of      -0.0219 from atom      12
Removing charge of      -0.0219 from atom      13
Removing charge of      -0.0219 from atom      14
Total charge of  -0.99999900 removed from       7 atoms
     Checking for mismatched coordinates.

--------------------------------------------------------------------------------
   3.  ATOMIC COORDINATES AND VELOCITIES
--------------------------------------------------------------------------------

default_name
 begin time read from input coords =   200.000 ps

 Number of triangulated 3-point waters found:     6947

     Sum of charges for TI region  1 =  -0.99999900
     Assuming uniform neutralizing plasma

     Sum of charges for TI region  2 =   0.00000000
     Forcing neutrality...

--------------------------------------------------------------------------------
   4.  RESULTS
 NSTEP =     1000   TIME(PS) =     202.000  TEMP(K) =   298.95  PRESS = -1025.0
 Etot   =    -52739.5231  EKtot   =     12386.3413  EPtot      =    -65125.8644
 BOND   =         0.1317  ANGLE   =         7.7445  DIHED      =         5.2224
 1-4 NB =         0.0754  1-4 EEL =         5.7343  VDWAALS    =      9331.3327
 EELEC  =    -74476.1053  EHBOND  =         0.0000  RESTRAINT  =         0.0000
 EKCMT  =      6202.0743  VIRIAL  =     11232.1967  VOLUME     =    227287.8641
                                                    Density    =         0.9148
 DV/DL  =        96.7827
 ------------------------------------------------------------------------------

      A V E R A G E S   O V E R    1000 S T E P S

 NSTEP =     1000   TIME(PS) =     202.000  TEMP(K) =   300.85  PRESS =  -917.1
 Etot   =    -52558.4686  EKtot   =     12465.2157  EPtot      =    -65023.6843
 BOND   =         1.0306  ANGLE   =         5.4611  DIHED      =         5.2662
 1-4 NB =         0.3940  1-4 EEL =         5.8851  VDWAALS    =      9501.6130
 EELEC  =    -74543.3344  EHBOND  =         0.0000  RESTRAINT  =         0.0000
 EKCMT  =      6272.7136  VIRIAL  =     10810.4316  VOLUME     =    229085.3335
                                                    Density    =         0.9077
 DV/DL  =        89.4533
 ------------------------------------------------------------------------------

      R M S  F L U C T U A T I O N S

 NSTEP =     1000   TIME(PS) =     202.000  TEMP(K) =     1.84  PRESS =   121.8
 Etot   =       106.5221  EKtot   =        76.1296  EPtot      =       115.2036
 BOND   =         0.7217  ANGLE   =         1.2740  DIHED      =         0.0735
 1-4 NB =         0.2397  1-4 EEL =         0.1019  VDWAALS    =       108.4596
 EELEC  =       178.6758  EHBOND  =         0.0000  RESTRAINT  =         0.0000
 EKCMT  =        62.3765  VIRIAL  =       611.2680  VOLUME     =      1091.4489
                                                    Density    =         0.0043
 DV/DL  =         9.7780
 ------------------------------------------------------------------------------

      A V E R A G E S   O V E R    1000 S T E P S

 NSTEP =     1000   TIME(PS) =     202.000  TEMP(K) =   300.85  PRESS =  -917.1
 Etot   =    -52558.4686  EKtot   =     12465.2157  EPtot      =    -65023.6843
 BOND   =         1.0306  ANGLE   =         5.4611  DIHED      =         5.2662
 1-4 NB =         0.3940  1-4 EEL =         5.8851  VDWAALS    =      9501.6130
 EELEC  =    -74543.3344  EHBOND  =         0.0000  RESTRAINT  =         0.0000
 EKCMT  =      6272.7136  VIRIAL  =     10810.4316  VOLUME     =    229085.3335
                                                    Density    =         0.9077
 DV/DL  =        89.4533
 ------------------------------------------------------------------------------

      R M S  F L U C T U A T I O N S

 NSTEP =     1000   TIME(PS) =     202.000  TEMP(K) =     1.84  PRESS =   121.8
 Etot   =       106.5221  EKtot   =        76.1296  EPtot      =       115.2036
 BOND   =         0.7217  ANGLE   =         1.2740  DIHED      =         0.0735
 1-4 NB =         0.2397  1-4 EEL =         0.1019  VDWAALS    =       108.4596
 EELEC  =       178.6758  EHBOND  =         0.0000  RESTRAINT  =         0.0000
 EKCMT  =        62.3765  VIRIAL  =       611.2680  VOLUME     =      1091.4489
                                                    Density    =         0.0043
 DV/DL  =         9.7780
 ------------------------------------------------------------------------------

      DV/DL, AVERAGES OVER    1000 STEPS

 NSTEP =     1000   TIME(PS) =     202.000  TEMP(K) =     1.84  PRESS =     0.0
 Etot   =         0.0000  EKtot   =         0.0000  EPtot      =        89.4533
 BOND   =         0.0000  ANGLE   =         0.0000  DIHED      =         0.0000
 1-4 NB =         0.0000  1-4 EEL =       -10.4601  VDWAALS    =         0.0000
 EELEC  =        99.9134  EHBOND  =         0.0000  RESTRAINT  =         0.0000
 EKCMT  =         0.0000  VIRIAL  =         0.0000  VOLUME     =         0.0000
                                                    Density    =         0.0000
 DV/DL  =        89.4533
 ------------------------------------------------------------------------------

      A V E R A G E S   O V E R    1000 S T E P S

 NSTEP =     2000   TIME(PS) =     204.000  TEMP(K) =   301.83  PRESS =  -763.8
 Etot   =    -52773.7743  EKtot   =     12505.9028  EPtot      =    -65279.6771
 BOND   =         1.5635  ANGLE   =         5.8069  DIHED      =         5.3026
 1-4 NB =         0.4335  1-4 EEL =         5.8966  VDWAALS    =      9585.4445
 EELEC  =    -74884.1246  EHBOND  =         0.0000  RESTRAINT  =         0.0000
 EKCMT  =      6273.8236  VIRIAL  =      9996.8635  VOLUME     =    225653.6996
                                                    Density    =         0.9215
 DV/DL  =        93.5297
 ------------------------------------------------------------------------------

      R M S  F L U C T U A T I O N S

 NSTEP =     2000   TIME(PS) =     204.000  TEMP(K) =     1.77  PRESS =   132.9
 Etot   =       115.7868  EKtot   =        73.5268  EPtot      =       117.3642
 BOND   =         1.0281  ANGLE   =         1.3115  DIHED      =         0.1278
 1-4 NB =         0.2470  1-4 EEL =         0.1033  VDWAALS    =       128.8296
 EELEC  =       208.5466  EHBOND  =         0.0000  RESTRAINT  =         0.0000
 EKCMT  =        59.1735  VIRIAL  =       661.5811  VOLUME     =       876.9658
                                                    Density    =         0.0036
 DV/DL  =         9.6232
 ------------------------------------------------------------------------------

      A V E R A G E S   O V E R    1000 S T E P S

 NSTEP =     2000   TIME(PS) =     204.000  TEMP(K) =   301.83  PRESS =  -763.8
 Etot   =    -52773.7743  EKtot   =     12505.9028  EPtot      =    -65279.6771
 BOND   =         1.5635  ANGLE   =         5.8069  DIHED      =         5.3026
 1-4 NB =         0.4335  1-4 EEL =         5.8966  VDWAALS    =      9585.4445
 EELEC  =    -74884.1246  EHBOND  =         0.0000  RESTRAINT  =         0.0000
 EKCMT  =      6273.8236  VIRIAL  =      9996.8635  VOLUME     =    225653.6996
                                                    Density    =         0.9215
 DV/DL  =        93.5297
 ------------------------------------------------------------------------------

      R M S  F L U C T U A T I O N S

 NSTEP =     2000   TIME(PS) =     204.000  TEMP(K) =     1.77  PRESS =   132.9
 Etot   =       115.7868  EKtot   =        73.5268  EPtot      =       117.3642
 BOND   =         1.0281  ANGLE   =         1.3115  DIHED      =         0.1278
 1-4 NB =         0.2470  1-4 EEL =         0.1033  VDWAALS    =       128.8296
 EELEC  =       208.5466  EHBOND  =         0.0000  RESTRAINT  =         0.0000
 EKCMT  =        59.1735  VIRIAL  =       661.5811  VOLUME     =       876.9658
                                                    Density    =         0.0036
 DV/DL  =         9.6232
 ------------------------------------------------------------------------------

      DV/DL, AVERAGES OVER    1000 STEPS

 NSTEP =     2000   TIME(PS) =     204.000  TEMP(K) =     1.77  PRESS =     0.0
 Etot   =         0.0000  EKtot   =         0.0000  EPtot      =        93.5297
 BOND   =         0.0000  ANGLE   =         0.0000  DIHED      =         0.0000
 1-4 NB =         0.0000  1-4 EEL =       -10.4806  VDWAALS    =         0.0000
 EELEC  =       104.0104  EHBOND  =         0.0000  RESTRAINT  =         0.0000
 EKCMT  =         0.0000  VIRIAL  =         0.0000  VOLUME     =         0.0000
                                                    Density    =         0.0000
 DV/DL  =        93.5297
 ------------------------------------------------------------------------------

      A V E R A G E S   O V E R    1000 S T E P S

 NSTEP =   500000   TIME(PS) =    1200.000  TEMP(K) =   299.96  PRESS =   -13.3
 Etot   =    -53833.8727  EKtot   =     12428.3187  EPtot      =    -66262.1914
 BOND   =         1.0514  ANGLE   =         6.0039  DIHED      =         5.2867
 1-4 NB =         0.4681  1-4 EEL =         5.8927  VDWAALS    =      9881.0422
 EELEC  =    -76161.9364  EHBOND  =         0.0000  RESTRAINT  =         0.0000
 EKCMT  =      6245.6637  VIRIAL  =      6306.4729  VOLUME     =    211503.7973
                                                    Density    =         0.9831
 DV/DL  =        94.6579
 ------------------------------------------------------------------------------

      R M S  F L U C T U A T I O N S

 NSTEP =   500000   TIME(PS) =    1200.000  TEMP(K) =     2.24  PRESS =   166.5
 Etot   =        98.5285  EKtot   =        92.9382  EPtot      =        83.6405
 BOND   =         0.7367  ANGLE   =         1.4578  DIHED      =         0.1094
 1-4 NB =         0.3581  1-4 EEL =         0.1339  VDWAALS    =       159.1011
 EELEC  =       197.1626  EHBOND  =         0.0000  RESTRAINT  =         0.0000
 EKCMT  =        68.1800  VIRIAL  =       750.1532  VOLUME     =        44.8521
                                                    Density    =         0.0002
 DV/DL  =         9.2322
 ------------------------------------------------------------------------------

      A V E R A G E S   O V E R    1000 S T E P S

 NSTEP =   500000   TIME(PS) =    1200.000  TEMP(K) =   299.96  PRESS =   -13.3
 Etot   =    -53833.8727  EKtot   =     12428.3187  EPtot      =    -66262.1914
 BOND   =         1.0514  ANGLE   =         6.0039  DIHED      =         5.2867
 1-4 NB =         0.4681  1-4 EEL =         5.8927  VDWAALS    =      9881.0422
 EELEC  =    -76161.9364  EHBOND  =         0.0000  RESTRAINT  =         0.0000
 EKCMT  =      6245.6637  VIRIAL  =      6306.4729  VOLUME     =    211503.7973
                                                    Density    =         0.9831
 DV/DL  =        94.6579
 ------------------------------------------------------------------------------

      R M S  F L U C T U A T I O N S

 NSTEP =   500000   TIME(PS) =    1200.000  TEMP(K) =     2.24  PRESS =   166.5
 Etot   =        98.5285  EKtot   =        92.9382  EPtot      =        83.6405
 BOND   =         0.7367  ANGLE   =         1.4578  DIHED      =         0.1094
 1-4 NB =         0.3581  1-4 EEL =         0.1339  VDWAALS    =       159.1011
 EELEC  =       197.1626  EHBOND  =         0.0000  RESTRAINT  =         0.0000
 EKCMT  =        68.1800  VIRIAL  =       750.1532  VOLUME     =        44.8521
                                                    Density    =         0.0002
 DV/DL  =         9.2322
 ------------------------------------------------------------------------------

      DV/DL, AVERAGES OVER    1000 STEPS

 NSTEP =   500000   TIME(PS) =    1200.000  TEMP(K) =     2.24  PRESS =     0.0
 Etot   =         0.0000  EKtot   =         0.0000  EPtot      =        94.6579
 BOND   =         0.0000  ANGLE   =         0.0000  DIHED      =         0.0000
 1-4 NB =         0.0000  1-4 EEL =       -10.4737  VDWAALS    =         0.0000
 EELEC  =       105.1316  EHBOND  =         0.0000  RESTRAINT  =         0.0000
 EKCMT  =         0.0000  VIRIAL  =         0.0000  VOLUME     =         0.0000
                                                    Density    =         0.0000
 DV/DL  =        94.6579
 ------------------------------------------------------------------------------

      A V E R A G E S   O V E R  500000 S T E P S

 NSTEP =   500000   TIME(PS) =    1200.000  TEMP(K) =   300.15  PRESS =    -8.9
 Etot   =    -53829.6350  EKtot   =     12436.2175  EPtot      =    -66265.8526
 BOND   =         0.9559  ANGLE   =         5.1711  DIHED      =         5.2800
 1-4 NB =         0.4024  1-4 EEL =         5.8902  VDWAALS    =      9906.8209
 EELEC  =    -76190.3729  EHBOND  =         0.0000  RESTRAINT  =         0.0000
 EKCMT  =      6238.5605  VIRIAL  =      6281.3322  VOLUME     =    211730.6459
                                                    Density    =         0.9821
 DV/DL  =        93.4414
 ------------------------------------------------------------------------------

      R M S  F L U C T U A T I O N S

 NSTEP =   500000   TIME(PS) =    1200.000  TEMP(K) =     2.07  PRESS =   149.8
 Etot   =       174.0320  EKtot   =        85.7770  EPtot      =       149.1824
 BOND   =         0.7762  ANGLE   =         1.2043  DIHED      =         0.0894
 1-4 NB =         0.2335  1-4 EEL =         0.0941  VDWAALS    =       129.5747
 EELEC  =       229.5848  EHBOND  =         0.0000  RESTRAINT  =         0.0000
 EKCMT  =        60.8536  VIRIAL  =       694.2035  VOLUME     =      1277.6698
                                                    Density    =         0.0056
 DV/DL  =        10.6063
 ------------------------------------------------------------------------------

      A V E R A G E S   O V E R  500000 S T E P S

 NSTEP =   500000   TIME(PS) =    1200.000  TEMP(K) =   300.15  PRESS =    -8.9
 Etot   =    -53829.6350  EKtot   =     12436.2175  EPtot      =    -66265.8526
 BOND   =         0.9559  ANGLE   =         5.1711  DIHED      =         5.2800
 1-4 NB =         0.4024  1-4 EEL =         5.8902  VDWAALS    =      9906.8209
 EELEC  =    -76190.3729  EHBOND  =         0.0000  RESTRAINT  =         0.0000
 EKCMT  =      6238.5605  VIRIAL  =      6281.3322  VOLUME     =    211730.6459
                                                    Density    =         0.9821
 DV/DL  =        93.4414
 ------------------------------------------------------------------------------

      R M S  F L U C T U A T I O N S

 NSTEP =   500000   TIME(PS) =    1200.000  TEMP(K) =     2.07  PRESS =   149.8
 Etot   =       174.0320  EKtot   =        85.7770  EPtot      =       149.1824
 BOND   =         0.7762  ANGLE   =         1.2043  DIHED      =         0.0894
 1-4 NB =         0.2335  1-4 EEL =         0.0941  VDWAALS    =       129.5747
 EELEC  =       229.5848  EHBOND  =         0.0000  RESTRAINT  =         0.0000
 EKCMT  =        60.8536  VIRIAL  =       694.2035  VOLUME     =      1277.6698
                                                    Density    =         0.0056
 DV/DL  =        10.6063
 ------------------------------------------------------------------------------

      DV/DL, AVERAGES OVER  500000 STEPS

 NSTEP =   500000   TIME(PS) =    1200.000  TEMP(K) =     2.07  PRESS =     0.0
 Etot   =         0.0000  EKtot   =         0.0000  EPtot      =        93.4414
 BOND   =         0.0000  ANGLE   =         0.0000  DIHED      =         0.0000
 1-4 NB =         0.0000  1-4 EEL =       -10.4692  VDWAALS    =         0.0000
 EELEC  =       103.9105  EHBOND  =         0.0000  RESTRAINT  =         0.0000
 EKCMT  =         0.0000  VIRIAL  =         0.0000  VOLUME     =         0.0000
                                                    Density    =         0.0000
 DV/DL  =        93.4414
 ------------------------------------------------------------------------------
