-------------------------------------------------------
          Amber 18 PMEMD                              2018
          -------------------------------------------------------

  [-O]verwriting output

File Assignments:

 Here is the input file:

 &cntrl
   nstlim=500000, nscm=1000,
   ntx=5, irest=1, ntpr=1000,
   tempi=300.0, temp0=300.0, ntt=3, gamma_ln=2.0,
   ntp=1, pres0=1.01325, taup=5.0,
   ntb=2, igb=0, cut=10.0,
   dt=0.002, ig=-1,
   ntc=2, ntf=2,
   iwrap=0,
   ntwr=1000, ntwx=50000, ntave=1000,
   ioutfm=1, ntwv=-1,
   ifsc = 0, icfe=1,
   clambda=0.99078,
   timask1=':1',
   timask2=':2', crgmask = ':2',
/

Note: ig = -1. Setting random seed to   263129 based on wallclock time in
      microseconds.

--------------------------------------------------------------------------------
   1.  RESOURCE   USE:
--------------------------------------------------------------------------------

 getting box info from netcdf restart file
 NATOM  =      14 NTYPES =       6 NBONH =       6 MBONA  =       6
 NTHETH =      12 MTHETA =       6 NPHIH =      24 MPHIA  =       2
 NHPARM =       0 NPARM  =       0 NNB   =      44 NRES   =       2
 NBONA  =       6 NTHETA =       6 NPHIA =       2 NUMBND =       3
 NUMANG =       4 NPTRA  =       3 NATYP =       6 NPHB   =       1
 IFBOX  =       2 NMXRS  =       7 IFCAP =       0 NEXTRA =       0
 NCOPY  =       0

     BOX TYPE: TRUNCATED OCTAHEDRON

--------------------------------------------------------------------------------
   2.  CONTROL  DATA  FOR  THE  RUN
--------------------------------------------------------------------------------

default_name

General flags:
     imin    =       0, nmropt  =       0

Nature and format of input:
     ntx     =       5, irest   =       1, ntrx    =       1

Nature and format of output:
     ntxo    =       2, ntpr    =    1000, ntrx    =       1, ntwr    =    1000
     iwrap   =       0, ntwx    =   50000, ntwv    =      -1, ntwe    =       0
     ioutfm  =       1, ntwprt  =       0, idecomp =       0, rbornstat=      0

Potential function:
     ntf     =       2, ntb     =       2, igb     =       0, nsnb    =      25
     ipol    =       0, gbsa    =       0, iesp    =       0
     dielc   =   1.00000, cut     =  10.00000, intdiel =   1.00000

Frozen or restrained atoms:
     ibelly  =       0, ntr     =       0

Molecular dynamics:
     nstlim  =    500000, nscm    =      1000, nrespa  =         1
     t       =   0.00000, dt      =   0.00200, vlimit  =  -1.00000

Langevin dynamics temperature regulation:
     ig      =  263129
     temp0   = 300.00000, tempi   = 300.00000, gamma_ln=   2.00000

Pressure regulation:
     ntp     =       1
     pres0   =   1.01325, comp    =  44.60000, taup    =   5.00000

SHAKE:
     ntc     =       2, jfastw  =       0
     tol     =   0.00001

Free energy options:
     icfe    =       1, ifsc    =       0, klambda =       1
     clambda =  0.9908, scalpha =  0.5000, scbeta  = 12.0000
     sceeorder =       2
     dynlmb =  0.0000 logdvdl =       0

Ewald parameters:
     verbose =       0, ew_type =       0, nbflag  =       1, use_pme =       1
     vdwmeth =       1, eedmeth =       1, netfrc  =       1
     Box X =   66.953   Box Y =   66.953   Box Z =   66.953
     Alpha =  109.471   Beta  =  109.471   Gamma =  109.471
     NFFT1 =   64       NFFT2 =   64       NFFT3 =   64
     Cutoff=   10.000   Tol   =0.100E-04
     Ewald Coefficient =  0.27511
     Interpolation order =    4
     TI Mask 1 :1; matches      7 atoms
     TI Mask 2 :2; matches      7 atoms
     TI region 1:       7 atoms
     TI region 2:       7 atoms
Removing charge of      -0.8188 from atom       8
Removing charge of      -0.8188 from atom       9
Removing charge of       0.8054 from atom      10
Removing charge of      -0.1021 from atom      11
Removing charge of      -0.0219 from atom      12
Removing charge of      -0.0219 from atom      13
Removing charge of      -0.0219 from atom      14
Total charge of  -0.99999900 removed from       7 atoms
     Checking for mismatched coordinates.

--------------------------------------------------------------------------------
   3.  ATOMIC COORDINATES AND VELOCITIES
--------------------------------------------------------------------------------

default_name
 begin time read from input coords =   200.000 ps

 Number of triangulated 3-point waters found:        0

     Sum of charges for TI region  1 =  -0.99999900
     Assuming uniform neutralizing plasma

     Sum of charges for TI region  2 =   0.00000000
     Forcing neutrality...

--------------------------------------------------------------------------------
   4.  RESULTS
 NSTEP =     1000   TIME(PS) =     202.000  TEMP(K) =   323.98  PRESS =     0.8
 Etot   =        18.2748  EKtot   =         5.7942  EPtot      =        12.4806
 BOND   =         1.8818  ANGLE   =         5.3139  DIHED      =         5.2279
 1-4 NB =         0.0366  1-4 EEL =         0.0924  VDWAALS    =        -0.0001
 EELEC  =        -0.0720  EHBOND  =         0.0000  RESTRAINT  =         0.0000
 EKCMT  =         1.6690  VIRIAL  =        -2.1563  VOLUME     =    231038.4469
                                                    Density    =         0.0004
 DV/DL  =        -2.2125
 ------------------------------------------------------------------------------

      A V E R A G E S   O V E R    1000 S T E P S

 NSTEP =     1000   TIME(PS) =     202.000  TEMP(K) =   316.07  PRESS =     1.3
 Etot   =        18.3063  EKtot   =         5.6528  EPtot      =        12.6535
 BOND   =         1.0964  ANGLE   =         5.5588  DIHED      =         5.3920
 1-4 NB =         0.5810  1-4 EEL =         0.0974  VDWAALS    =        -0.0001
 EELEC  =        -0.0720  EHBOND  =         0.0000  RESTRAINT  =         0.0000
 EKCMT  =         1.6489  VIRIAL  =        -4.9350  VOLUME     =    231037.5754
                                                    Density    =         0.0004
 DV/DL  =        -2.7559
 ------------------------------------------------------------------------------

      R M S  F L U C T U A T I O N S

 NSTEP =     1000   TIME(PS) =     202.000  TEMP(K) =    91.54  PRESS =     0.7
 Etot   =         1.6839  EKtot   =         1.6372  EPtot      =         1.6806
 BOND   =         0.8967  ANGLE   =         1.2916  DIHED      =         0.1678
 1-4 NB =         0.3425  1-4 EEL =         0.0020  VDWAALS    =         0.0000
 EELEC  =         0.0000  EHBOND  =         0.0000  RESTRAINT  =         0.0000
 EKCMT  =         1.1213  VIRIAL  =         3.2721  VOLUME     =         0.6070
                                                    Density    =         0.0000
 DV/DL  =         0.2130
 ------------------------------------------------------------------------------

      A V E R A G E S   O V E R    1000 S T E P S

 NSTEP =     1000   TIME(PS) =     202.000  TEMP(K) =   316.07  PRESS =     1.3
 Etot   =        18.3063  EKtot   =         5.6528  EPtot      =        12.6535
 BOND   =         1.0964  ANGLE   =         5.5588  DIHED      =         5.3920
 1-4 NB =         0.5810  1-4 EEL =         0.0974  VDWAALS    =        -0.0001
 EELEC  =        -0.0720  EHBOND  =         0.0000  RESTRAINT  =         0.0000
 EKCMT  =         1.6489  VIRIAL  =        -4.9350  VOLUME     =    231037.5754
                                                    Density    =         0.0004
 DV/DL  =        -2.7559
 ------------------------------------------------------------------------------

      R M S  F L U C T U A T I O N S

 NSTEP =     1000   TIME(PS) =     202.000  TEMP(K) =    91.54  PRESS =     0.7
 Etot   =         1.6839  EKtot   =         1.6372  EPtot      =         1.6806
 BOND   =         0.8967  ANGLE   =         1.2916  DIHED      =         0.1678
 1-4 NB =         0.3425  1-4 EEL =         0.0020  VDWAALS    =         0.0000
 EELEC  =         0.0000  EHBOND  =         0.0000  RESTRAINT  =         0.0000
 EKCMT  =         1.1213  VIRIAL  =         3.2721  VOLUME     =         0.6070
                                                    Density    =         0.0000
 DV/DL  =         0.2130
 ------------------------------------------------------------------------------

      DV/DL, AVERAGES OVER    1000 STEPS

 NSTEP =     1000   TIME(PS) =     202.000  TEMP(K) =    91.54  PRESS =     0.0
 Etot   =         0.0000  EKtot   =         0.0000  EPtot      =        -2.7559
 BOND   =         0.0000  ANGLE   =         0.0000  DIHED      =         0.0000
 1-4 NB =         0.0000  1-4 EEL =       -10.5636  VDWAALS    =         0.0000
 EELEC  =         7.8076  EHBOND  =         0.0000  RESTRAINT  =         0.0000
 EKCMT  =         0.0000  VIRIAL  =         0.0000  VOLUME     =         0.0000
                                                    Density    =         0.0000
 DV/DL  =        -2.7559
 ------------------------------------------------------------------------------

      A V E R A G E S   O V E R    1000 S T E P S

 NSTEP =     2000   TIME(PS) =     204.000  TEMP(K) =   293.59  PRESS =     1.2
 Etot   =        17.5110  EKtot   =         5.2509  EPtot      =        12.2602
 BOND   =         1.1331  ANGLE   =         5.2131  DIHED      =         5.2889
 1-4 NB =         0.6000  1-4 EEL =         0.0972  VDWAALS    =        -0.0001
 EELEC  =        -0.0720  EHBOND  =         0.0000  RESTRAINT  =         0.0000
 EKCMT  =         1.6853  VIRIAL  =        -4.2623  VOLUME     =    231038.7449
                                                    Density    =         0.0004
 DV/DL  =        -2.7293
 ------------------------------------------------------------------------------

      R M S  F L U C T U A T I O N S

 NSTEP =     2000   TIME(PS) =     204.000  TEMP(K) =    92.19  PRESS =     0.9
 Etot   =         1.8896  EKtot   =         1.6487  EPtot      =         1.5870
 BOND   =         0.8507  ANGLE   =         1.0380  DIHED      =         0.1159
 1-4 NB =         0.5214  1-4 EEL =         0.0027  VDWAALS    =         0.0000
 EELEC  =         0.0000  EHBOND  =         0.0000  RESTRAINT  =         0.0000
 EKCMT  =         0.9471  VIRIAL  =         4.2957  VOLUME     =         0.3245
                                                    Density    =         0.0000
 DV/DL  =         0.2877
 ------------------------------------------------------------------------------

      A V E R A G E S   O V E R    1000 S T E P S

 NSTEP =     2000   TIME(PS) =     204.000  TEMP(K) =   293.59  PRESS =     1.2
 Etot   =        17.5110  EKtot   =         5.2509  EPtot      =        12.2602
 BOND   =         1.1331  ANGLE   =         5.2131  DIHED      =         5.2889
 1-4 NB =         0.6000  1-4 EEL =         0.0972  VDWAALS    =        -0.0001
 EELEC  =        -0.0720  EHBOND  =         0.0000  RESTRAINT  =         0.0000
 EKCMT  =         1.6853  VIRIAL  =        -4.2623  VOLUME     =    231038.7449
                                                    Density    =         0.0004
 DV/DL  =        -2.7293
 ------------------------------------------------------------------------------

      R M S  F L U C T U A T I O N S

 NSTEP =     2000   TIME(PS) =     204.000  TEMP(K) =    92.19  PRESS =     0.9
 Etot   =         1.8896  EKtot   =         1.6487  EPtot      =         1.5870
 BOND   =         0.8507  ANGLE   =         1.0380  DIHED      =         0.1159
 1-4 NB =         0.5214  1-4 EEL =         0.0027  VDWAALS    =         0.0000
 EELEC  =         0.0000  EHBOND  =         0.0000  RESTRAINT  =         0.0000
 EKCMT  =         0.9471  VIRIAL  =         4.2957  VOLUME     =         0.3245
                                                    Density    =         0.0000
 DV/DL  =         0.2877
 ------------------------------------------------------------------------------

      DV/DL, AVERAGES OVER    1000 STEPS

 NSTEP =     2000   TIME(PS) =     204.000  TEMP(K) =    92.19  PRESS =     0.0
 Etot   =         0.0000  EKtot   =         0.0000  EPtot      =        -2.7293
 BOND   =         0.0000  ANGLE   =         0.0000  DIHED      =         0.0000
 1-4 NB =         0.0000  1-4 EEL =       -10.5369  VDWAALS    =         0.0000
 EELEC  =         7.8076  EHBOND  =         0.0000  RESTRAINT  =         0.0000
 EKCMT  =         0.0000  VIRIAL  =         0.0000  VOLUME     =         0.0000
                                                    Density    =         0.0000
 DV/DL  =        -2.7293
 ------------------------------------------------------------------------------

      A V E R A G E S   O V E R    1000 S T E P S

 NSTEP =   500000   TIME(PS) =    1200.000  TEMP(K) =   254.90  PRESS =     1.1
 Etot   =        15.8077  EKtot   =         4.5589  EPtot      =        11.2488
 BOND   =         0.6393  ANGLE   =         4.8363  DIHED      =         5.2441
 1-4 NB =         0.5041  1-4 EEL =         0.0970  VDWAALS    =        -0.0001
 EELEC  =        -0.0719  EHBOND  =         0.0000  RESTRAINT  =         0.0000
 EKCMT  =         1.1555  VIRIAL  =        -4.3761  VOLUME     =    231383.9476
                                                    Density    =         0.0004
 DV/DL  =        -2.7218
 ------------------------------------------------------------------------------

      R M S  F L U C T U A T I O N S

 NSTEP =   500000   TIME(PS) =    1200.000  TEMP(K) =    76.03  PRESS =     0.7
 Etot   =         1.9289  EKtot   =         1.3597  EPtot      =         1.2326
 BOND   =         0.4680  ANGLE   =         0.9856  DIHED      =         0.0424
 1-4 NB =         0.2986  1-4 EEL =         0.0017  VDWAALS    =         0.0000
 EELEC  =         0.0000  EHBOND  =         0.0000  RESTRAINT  =         0.0000
 EKCMT  =         0.6966  VIRIAL  =         3.3755  VOLUME     =         0.4114
                                                    Density    =         0.0000
 DV/DL  =         0.1808
 ------------------------------------------------------------------------------

      A V E R A G E S   O V E R    1000 S T E P S

 NSTEP =   500000   TIME(PS) =    1200.000  TEMP(K) =   254.90  PRESS =     1.1
 Etot   =        15.8077  EKtot   =         4.5589  EPtot      =        11.2488
 BOND   =         0.6393  ANGLE   =         4.8363  DIHED      =         5.2441
 1-4 NB =         0.5041  1-4 EEL =         0.0970  VDWAALS    =        -0.0001
 EELEC  =        -0.0719  EHBOND  =         0.0000  RESTRAINT  =         0.0000
 EKCMT  =         1.1555  VIRIAL  =        -4.3761  VOLUME     =    231383.9476
                                                    Density    =         0.0004
 DV/DL  =        -2.7218
 ------------------------------------------------------------------------------

      R M S  F L U C T U A T I O N S

 NSTEP =   500000   TIME(PS) =    1200.000  TEMP(K) =    76.03  PRESS =     0.7
 Etot   =         1.9289  EKtot   =         1.3597  EPtot      =         1.2326
 BOND   =         0.4680  ANGLE   =         0.9856  DIHED      =         0.0424
 1-4 NB =         0.2986  1-4 EEL =         0.0017  VDWAALS    =         0.0000
 EELEC  =         0.0000  EHBOND  =         0.0000  RESTRAINT  =         0.0000
 EKCMT  =         0.6966  VIRIAL  =         3.3755  VOLUME     =         0.4114
                                                    Density    =         0.0000
 DV/DL  =         0.1808
 ------------------------------------------------------------------------------

      DV/DL, AVERAGES OVER    1000 STEPS

 NSTEP =   500000   TIME(PS) =    1200.000  TEMP(K) =    76.03  PRESS =     0.0
 Etot   =         0.0000  EKtot   =         0.0000  EPtot      =        -2.7218
 BOND   =         0.0000  ANGLE   =         0.0000  DIHED      =         0.0000
 1-4 NB =         0.0000  1-4 EEL =       -10.5254  VDWAALS    =         0.0000
 EELEC  =         7.8035  EHBOND  =         0.0000  RESTRAINT  =         0.0000
 EKCMT  =         0.0000  VIRIAL  =         0.0000  VOLUME     =         0.0000
                                                    Density    =         0.0000
 DV/DL  =        -2.7218
 ------------------------------------------------------------------------------

      A V E R A G E S   O V E R  500000 S T E P S

 NSTEP =   500000   TIME(PS) =    1200.000  TEMP(K) =   299.19  PRESS =     1.2
 Etot   =        17.3239  EKtot   =         5.3510  EPtot      =        11.9729
 BOND   =         0.9633  ANGLE   =         5.1944  DIHED      =         5.2825
 1-4 NB =         0.5077  1-4 EEL =         0.0971  VDWAALS    =        -0.0001
 EELEC  =        -0.0720  EHBOND  =         0.0000  RESTRAINT  =         0.0000
 EKCMT  =         1.7645  VIRIAL  =        -4.1336  VOLUME     =    231215.4404
                                                    Density    =         0.0004
 DV/DL  =        -2.7293
 ------------------------------------------------------------------------------

      R M S  F L U C T U A T I O N S

 NSTEP =   500000   TIME(PS) =    1200.000  TEMP(K) =   101.33  PRESS =     0.7
 Etot   =         2.4374  EKtot   =         1.8123  EPtot      =         1.5792
 BOND   =         0.7917  ANGLE   =         1.2274  DIHED      =         0.0913
 1-4 NB =         0.3060  1-4 EEL =         0.0016  VDWAALS    =         0.0000
 EELEC  =         0.0000  EHBOND  =         0.0000  RESTRAINT  =         0.0000
 EKCMT  =         1.4424  VIRIAL  =         3.2617  VOLUME     =       100.1288
                                                    Density    =         0.0000
 DV/DL  =         0.1779
 ------------------------------------------------------------------------------

      A V E R A G E S   O V E R  500000 S T E P S

 NSTEP =   500000   TIME(PS) =    1200.000  TEMP(K) =   299.19  PRESS =     1.2
 Etot   =        17.3239  EKtot   =         5.3510  EPtot      =        11.9729
 BOND   =         0.9633  ANGLE   =         5.1944  DIHED      =         5.2825
 1-4 NB =         0.5077  1-4 EEL =         0.0971  VDWAALS    =        -0.0001
 EELEC  =        -0.0720  EHBOND  =         0.0000  RESTRAINT  =         0.0000
 EKCMT  =         1.7645  VIRIAL  =        -4.1336  VOLUME     =    231215.4404
                                                    Density    =         0.0004
 DV/DL  =        -2.7293
 ------------------------------------------------------------------------------

      R M S  F L U C T U A T I O N S

 NSTEP =   500000   TIME(PS) =    1200.000  TEMP(K) =   101.33  PRESS =     0.7
 Etot   =         2.4374  EKtot   =         1.8123  EPtot      =         1.5792
 BOND   =         0.7917  ANGLE   =         1.2274  DIHED      =         0.0913
 1-4 NB =         0.3060  1-4 EEL =         0.0016  VDWAALS    =         0.0000
 EELEC  =         0.0000  EHBOND  =         0.0000  RESTRAINT  =         0.0000
 EKCMT  =         1.4424  VIRIAL  =         3.2617  VOLUME     =       100.1288
                                                    Density    =         0.0000
 DV/DL  =         0.1779
 ------------------------------------------------------------------------------

      DV/DL, AVERAGES OVER  500000 STEPS

 NSTEP =   500000   TIME(PS) =    1200.000  TEMP(K) =   101.33  PRESS =     0.0
 Etot   =         0.0000  EKtot   =         0.0000  EPtot      =        -2.7293
 BOND   =         0.0000  ANGLE   =         0.0000  DIHED      =         0.0000
 1-4 NB =         0.0000  1-4 EEL =       -10.5349  VDWAALS    =         0.0000
 EELEC  =         7.8056  EHBOND  =         0.0000  RESTRAINT  =         0.0000
 EKCMT  =         0.0000  VIRIAL  =         0.0000  VOLUME     =         0.0000
                                                    Density    =         0.0000
 DV/DL  =        -2.7293
 ------------------------------------------------------------------------------
