-------------------------------------------------------
          Amber 18 PMEMD                              2018
          -------------------------------------------------------

  [-O]verwriting output

File Assignments:

 Here is the input file:

 &cntrl
   nstlim=500000, nscm=1000,
   ntx=5, irest=1, ntpr=1000,
   tempi=300.0, temp0=300.0, ntt=3, gamma_ln=2.0,
   ntp=1, pres0=1.01325, taup=5.0,
   ntb=2, igb=0, cut=10.0,
   dt=0.002, ig=-1,
   ntc=2, ntf=2,
   iwrap=0,
   ntwr=1000, ntwx=50000, ntave=1000,
   ioutfm=1, ntwv=-1,
   ifsc = 0, icfe=1,
   clambda=0.88495,
   timask1=':1',
   timask2=':2', crgmask = ':2',
/

Note: ig = -1. Setting random seed to   552886 based on wallclock time in
      microseconds.

--------------------------------------------------------------------------------
   1.  RESOURCE   USE:
--------------------------------------------------------------------------------

 getting box info from netcdf restart file
 NATOM  =   20855 NTYPES =       6 NBONH =   20847 MBONA  =       6
 NTHETH =      12 MTHETA =       6 NPHIH =      24 MPHIA  =       2
 NHPARM =       0 NPARM  =       0 NNB   =   27832 NRES   =    6949
 NBONA  =       6 NTHETA =       6 NPHIA =       2 NUMBND =       5
 NUMANG =       4 NPTRA  =       3 NATYP =       6 NPHB   =       1
 IFBOX  =       2 NMXRS  =       7 IFCAP =       0 NEXTRA =       0
 NCOPY  =       0

     BOX TYPE: TRUNCATED OCTAHEDRON

--------------------------------------------------------------------------------
   2.  CONTROL  DATA  FOR  THE  RUN
--------------------------------------------------------------------------------

default_name

General flags:
     imin    =       0, nmropt  =       0

Nature and format of input:
     ntx     =       5, irest   =       1, ntrx    =       1

Nature and format of output:
     ntxo    =       2, ntpr    =    1000, ntrx    =       1, ntwr    =    1000
     iwrap   =       0, ntwx    =   50000, ntwv    =      -1, ntwe    =       0
     ioutfm  =       1, ntwprt  =       0, idecomp =       0, rbornstat=      0

Potential function:
     ntf     =       2, ntb     =       2, igb     =       0, nsnb    =      25
     ipol    =       0, gbsa    =       0, iesp    =       0
     dielc   =   1.00000, cut     =  10.00000, intdiel =   1.00000

Frozen or restrained atoms:
     ibelly  =       0, ntr     =       0

Molecular dynamics:
     nstlim  =    500000, nscm    =      1000, nrespa  =         1
     t       =   0.00000, dt      =   0.00200, vlimit  =  -1.00000

Langevin dynamics temperature regulation:
     ig      =  552886
     temp0   = 300.00000, tempi   = 300.00000, gamma_ln=   2.00000

Pressure regulation:
     ntp     =       1
     pres0   =   1.01325, comp    =  44.60000, taup    =   5.00000

SHAKE:
     ntc     =       2, jfastw  =       0
     tol     =   0.00001

Free energy options:
     icfe    =       1, ifsc    =       0, klambda =       1
     clambda =  0.8850, scalpha =  0.5000, scbeta  = 12.0000
     sceeorder =       2
     dynlmb =  0.0000 logdvdl =       0

Ewald parameters:
     verbose =       0, ew_type =       0, nbflag  =       1, use_pme =       1
     vdwmeth =       1, eedmeth =       1, netfrc  =       1
     Box X =   66.953   Box Y =   66.953   Box Z =   66.953
     Alpha =  109.471   Beta  =  109.471   Gamma =  109.471
     NFFT1 =   64       NFFT2 =   64       NFFT3 =   64
     Cutoff=   10.000   Tol   =0.100E-04
     Ewald Coefficient =  0.27511
     Interpolation order =    4
     TI Mask 1 :1; matches      7 atoms
     TI Mask 2 :2; matches      7 atoms
     TI region 1:   20848 atoms
     TI region 2:   20848 atoms
Removing charge of      -0.8188 from atom       8
Removing charge of      -0.8188 from atom       9
Removing charge of       0.8054 from atom      10
Removing charge of      -0.1021 from atom      11
Removing charge of      -0.0219 from atom      12
Removing charge of      -0.0219 from atom      13
Removing charge of      -0.0219 from atom      14
Total charge of  -0.99999900 removed from       7 atoms
     Checking for mismatched coordinates.

--------------------------------------------------------------------------------
   3.  ATOMIC COORDINATES AND VELOCITIES
--------------------------------------------------------------------------------

default_name
 begin time read from input coords =   200.000 ps

 Number of triangulated 3-point waters found:     6947

     Sum of charges for TI region  1 =  -0.99999900
     Assuming uniform neutralizing plasma

     Sum of charges for TI region  2 =   0.00000000
     Forcing neutrality...

--------------------------------------------------------------------------------
   4.  RESULTS
 NSTEP =     1000   TIME(PS) =     202.000  TEMP(K) =   300.92  PRESS =  -635.2
 Etot   =    -52690.4433  EKtot   =     12468.0245  EPtot      =    -65158.4678
 BOND   =         0.4399  ANGLE   =         7.5501  DIHED      =         5.3605
 1-4 NB =         0.6766  1-4 EEL =         1.2134  VDWAALS    =      9609.6261
 EELEC  =    -74783.3345  EHBOND  =         0.0000  RESTRAINT  =         0.0000
 EKCMT  =      6309.5878  VIRIAL  =      9434.3095  VOLUME     =    227835.2951
                                                    Density    =         0.9126
 DV/DL  =        25.6994
 ------------------------------------------------------------------------------

      A V E R A G E S   O V E R    1000 S T E P S

 NSTEP =     1000   TIME(PS) =     202.000  TEMP(K) =   300.60  PRESS =  -781.9
 Etot   =    -52758.3179  EKtot   =     12454.7313  EPtot      =    -65213.0492
 BOND   =         1.4185  ANGLE   =         5.2730  DIHED      =         5.2941
 1-4 NB =         0.4942  1-4 EEL =         1.2112  VDWAALS    =      9595.4064
 EELEC  =    -74822.1465  EHBOND  =         0.0000  RESTRAINT  =         0.0000
 EKCMT  =      6241.8525  VIRIAL  =     10115.1180  VOLUME     =    229391.9059
                                                    Density    =         0.9065
 DV/DL  =        18.1373
 ------------------------------------------------------------------------------

      R M S  F L U C T U A T I O N S

 NSTEP =     1000   TIME(PS) =     202.000  TEMP(K) =     1.83  PRESS =    99.5
 Etot   =       111.9894  EKtot   =        75.9508  EPtot      =       110.6833
 BOND   =         1.1874  ANGLE   =         1.4177  DIHED      =         0.1102
 1-4 NB =         0.2978  1-4 EEL =         0.0193  VDWAALS    =       103.9599
 EELEC  =       180.0571  EHBOND  =         0.0000  RESTRAINT  =         0.0000
 EKCMT  =        58.4467  VIRIAL  =       502.3007  VOLUME     =       923.0482
                                                    Density    =         0.0036
 DV/DL  =         8.8361
 ------------------------------------------------------------------------------

      A V E R A G E S   O V E R    1000 S T E P S

 NSTEP =     1000   TIME(PS) =     202.000  TEMP(K) =   300.60  PRESS =  -781.9
 Etot   =    -52758.3179  EKtot   =     12454.7313  EPtot      =    -65213.0492
 BOND   =         1.4185  ANGLE   =         5.2730  DIHED      =         5.2941
 1-4 NB =         0.4942  1-4 EEL =         1.2112  VDWAALS    =      9595.4064
 EELEC  =    -74822.1465  EHBOND  =         0.0000  RESTRAINT  =         0.0000
 EKCMT  =      6241.8525  VIRIAL  =     10115.1180  VOLUME     =    229391.9059
                                                    Density    =         0.9065
 DV/DL  =        18.1373
 ------------------------------------------------------------------------------

      R M S  F L U C T U A T I O N S

 NSTEP =     1000   TIME(PS) =     202.000  TEMP(K) =     1.83  PRESS =    99.5
 Etot   =       111.9894  EKtot   =        75.9508  EPtot      =       110.6833
 BOND   =         1.1874  ANGLE   =         1.4177  DIHED      =         0.1102
 1-4 NB =         0.2978  1-4 EEL =         0.0193  VDWAALS    =       103.9599
 EELEC  =       180.0571  EHBOND  =         0.0000  RESTRAINT  =         0.0000
 EKCMT  =        58.4467  VIRIAL  =       502.3007  VOLUME     =       923.0482
                                                    Density    =         0.0036
 DV/DL  =         8.8361
 ------------------------------------------------------------------------------

      DV/DL, AVERAGES OVER    1000 STEPS

 NSTEP =     1000   TIME(PS) =     202.000  TEMP(K) =     1.83  PRESS =     0.0
 Etot   =         0.0000  EKtot   =         0.0000  EPtot      =        18.1373
 BOND   =         0.0000  ANGLE   =         0.0000  DIHED      =         0.0000
 1-4 NB =         0.0000  1-4 EEL =       -10.5272  VDWAALS    =         0.0000
 EELEC  =        28.6646  EHBOND  =         0.0000  RESTRAINT  =         0.0000
 EKCMT  =         0.0000  VIRIAL  =         0.0000  VOLUME     =         0.0000
                                                    Density    =         0.0000
 DV/DL  =        18.1373
 ------------------------------------------------------------------------------

      A V E R A G E S   O V E R    1000 S T E P S

 NSTEP =     2000   TIME(PS) =     204.000  TEMP(K) =   300.92  PRESS =  -651.3
 Etot   =    -52848.2519  EKtot   =     12468.0993  EPtot      =    -65316.3512
 BOND   =         0.9711  ANGLE   =         4.5600  DIHED      =         5.2862
 1-4 NB =         0.4346  1-4 EEL =         1.2101  VDWAALS    =      9627.8570
 EELEC  =    -74956.6702  EHBOND  =         0.0000  RESTRAINT  =         0.0000
 EKCMT  =      6280.3255  VIRIAL  =      9465.5596  VOLUME     =    226437.8621
                                                    Density    =         0.9183
 DV/DL  =        21.3680
 ------------------------------------------------------------------------------

      R M S  F L U C T U A T I O N S

 NSTEP =     2000   TIME(PS) =     204.000  TEMP(K) =     1.90  PRESS =   125.9
 Etot   =       110.4625  EKtot   =        78.7128  EPtot      =        98.9203
 BOND   =         0.8232  ANGLE   =         0.8487  DIHED      =         0.0938
 1-4 NB =         0.1855  1-4 EEL =         0.0161  VDWAALS    =       113.1851
 EELEC  =       173.9287  EHBOND  =         0.0000  RESTRAINT  =         0.0000
 EKCMT  =        56.0458  VIRIAL  =       632.7027  VOLUME     =       779.6767
                                                    Density    =         0.0032
 DV/DL  =         9.7410
 ------------------------------------------------------------------------------

      A V E R A G E S   O V E R    1000 S T E P S

 NSTEP =     2000   TIME(PS) =     204.000  TEMP(K) =   300.92  PRESS =  -651.3
 Etot   =    -52848.2519  EKtot   =     12468.0993  EPtot      =    -65316.3512
 BOND   =         0.9711  ANGLE   =         4.5600  DIHED      =         5.2862
 1-4 NB =         0.4346  1-4 EEL =         1.2101  VDWAALS    =      9627.8570
 EELEC  =    -74956.6702  EHBOND  =         0.0000  RESTRAINT  =         0.0000
 EKCMT  =      6280.3255  VIRIAL  =      9465.5596  VOLUME     =    226437.8621
                                                    Density    =         0.9183
 DV/DL  =        21.3680
 ------------------------------------------------------------------------------

      R M S  F L U C T U A T I O N S

 NSTEP =     2000   TIME(PS) =     204.000  TEMP(K) =     1.90  PRESS =   125.9
 Etot   =       110.4625  EKtot   =        78.7128  EPtot      =        98.9203
 BOND   =         0.8232  ANGLE   =         0.8487  DIHED      =         0.0938
 1-4 NB =         0.1855  1-4 EEL =         0.0161  VDWAALS    =       113.1851
 EELEC  =       173.9287  EHBOND  =         0.0000  RESTRAINT  =         0.0000
 EKCMT  =        56.0458  VIRIAL  =       632.7027  VOLUME     =       779.6767
                                                    Density    =         0.0032
 DV/DL  =         9.7410
 ------------------------------------------------------------------------------

      DV/DL, AVERAGES OVER    1000 STEPS

 NSTEP =     2000   TIME(PS) =     204.000  TEMP(K) =     1.90  PRESS =     0.0
 Etot   =         0.0000  EKtot   =         0.0000  EPtot      =        21.3680
 BOND   =         0.0000  ANGLE   =         0.0000  DIHED      =         0.0000
 1-4 NB =         0.0000  1-4 EEL =       -10.5185  VDWAALS    =         0.0000
 EELEC  =        31.8864  EHBOND  =         0.0000  RESTRAINT  =         0.0000
 EKCMT  =         0.0000  VIRIAL  =         0.0000  VOLUME     =         0.0000
                                                    Density    =         0.0000
 DV/DL  =        21.3680
 ------------------------------------------------------------------------------

      A V E R A G E S   O V E R    1000 S T E P S

 NSTEP =   500000   TIME(PS) =    1200.000  TEMP(K) =   299.21  PRESS =   -20.0
 Etot   =    -53858.9822  EKtot   =     12397.0548  EPtot      =    -66256.0370
 BOND   =         1.1997  ANGLE   =         5.7399  DIHED      =         5.2391
 1-4 NB =         0.5342  1-4 EEL =         1.2111  VDWAALS    =      9881.3940
 EELEC  =    -76151.3551  EHBOND  =         0.0000  RESTRAINT  =         0.0000
 EKCMT  =      6228.9146  VIRIAL  =      6320.1186  VOLUME     =    211448.9933
                                                    Density    =         0.9834
 DV/DL  =        22.4726
 ------------------------------------------------------------------------------

      R M S  F L U C T U A T I O N S

 NSTEP =   500000   TIME(PS) =    1200.000  TEMP(K) =     1.84  PRESS =   100.1
 Etot   =        97.8510  EKtot   =        76.1363  EPtot      =        89.6544
 BOND   =         0.9081  ANGLE   =         1.2538  DIHED      =         0.0389
 1-4 NB =         0.3885  1-4 EEL =         0.0256  VDWAALS    =       102.8183
 EELEC  =       155.0181  EHBOND  =         0.0000  RESTRAINT  =         0.0000
 EKCMT  =        59.3504  VIRIAL  =       452.4777  VOLUME     =        25.2388
                                                    Density    =         0.0001
 DV/DL  =         9.7839
 ------------------------------------------------------------------------------

      A V E R A G E S   O V E R    1000 S T E P S

 NSTEP =   500000   TIME(PS) =    1200.000  TEMP(K) =   299.21  PRESS =   -20.0
 Etot   =    -53858.9822  EKtot   =     12397.0548  EPtot      =    -66256.0370
 BOND   =         1.1997  ANGLE   =         5.7399  DIHED      =         5.2391
 1-4 NB =         0.5342  1-4 EEL =         1.2111  VDWAALS    =      9881.3940
 EELEC  =    -76151.3551  EHBOND  =         0.0000  RESTRAINT  =         0.0000
 EKCMT  =      6228.9146  VIRIAL  =      6320.1186  VOLUME     =    211448.9933
                                                    Density    =         0.9834
 DV/DL  =        22.4726
 ------------------------------------------------------------------------------

      R M S  F L U C T U A T I O N S

 NSTEP =   500000   TIME(PS) =    1200.000  TEMP(K) =     1.84  PRESS =   100.1
 Etot   =        97.8510  EKtot   =        76.1363  EPtot      =        89.6544
 BOND   =         0.9081  ANGLE   =         1.2538  DIHED      =         0.0389
 1-4 NB =         0.3885  1-4 EEL =         0.0256  VDWAALS    =       102.8183
 EELEC  =       155.0181  EHBOND  =         0.0000  RESTRAINT  =         0.0000
 EKCMT  =        59.3504  VIRIAL  =       452.4777  VOLUME     =        25.2388
                                                    Density    =         0.0001
 DV/DL  =         9.7839
 ------------------------------------------------------------------------------

      DV/DL, AVERAGES OVER    1000 STEPS

 NSTEP =   500000   TIME(PS) =    1200.000  TEMP(K) =     1.84  PRESS =     0.0
 Etot   =         0.0000  EKtot   =         0.0000  EPtot      =        22.4726
 BOND   =         0.0000  ANGLE   =         0.0000  DIHED      =         0.0000
 1-4 NB =         0.0000  1-4 EEL =       -10.5265  VDWAALS    =         0.0000
 EELEC  =        32.9990  EHBOND  =         0.0000  RESTRAINT  =         0.0000
 EKCMT  =         0.0000  VIRIAL  =         0.0000  VOLUME     =         0.0000
                                                    Density    =         0.0000
 DV/DL  =        22.4726
 ------------------------------------------------------------------------------

      A V E R A G E S   O V E R  500000 S T E P S

 NSTEP =   500000   TIME(PS) =    1200.000  TEMP(K) =   300.12  PRESS =    -8.9
 Etot   =    -53802.2996  EKtot   =     12435.0065  EPtot      =    -66237.3061
 BOND   =         0.9608  ANGLE   =         5.1679  DIHED      =         5.2814
 1-4 NB =         0.4869  1-4 EEL =         1.2108  VDWAALS    =      9903.3579
 EELEC  =    -76153.7718  EHBOND  =         0.0000  RESTRAINT  =         0.0000
 EKCMT  =      6236.8694  VIRIAL  =      6279.7512  VOLUME     =    211766.7456
                                                    Density    =         0.9819
 DV/DL  =        21.5806
 ------------------------------------------------------------------------------

      R M S  F L U C T U A T I O N S

 NSTEP =   500000   TIME(PS) =    1200.000  TEMP(K) =     2.08  PRESS =   146.7
 Etot   =       169.7982  EKtot   =        86.1924  EPtot      =       146.2630
 BOND   =         0.7848  ANGLE   =         1.2141  DIHED      =         0.0911
 1-4 NB =         0.2894  1-4 EEL =         0.0201  VDWAALS    =       127.5408
 EELEC  =       223.8757  EHBOND  =         0.0000  RESTRAINT  =         0.0000
 EKCMT  =        60.9113  VIRIAL  =       678.1048  VOLUME     =      1384.9250
                                                    Density    =         0.0061
 DV/DL  =         9.1118
 ------------------------------------------------------------------------------

      A V E R A G E S   O V E R  500000 S T E P S

 NSTEP =   500000   TIME(PS) =    1200.000  TEMP(K) =   300.12  PRESS =    -8.9
 Etot   =    -53802.2996  EKtot   =     12435.0065  EPtot      =    -66237.3061
 BOND   =         0.9608  ANGLE   =         5.1679  DIHED      =         5.2814
 1-4 NB =         0.4869  1-4 EEL =         1.2108  VDWAALS    =      9903.3579
 EELEC  =    -76153.7718  EHBOND  =         0.0000  RESTRAINT  =         0.0000
 EKCMT  =      6236.8694  VIRIAL  =      6279.7512  VOLUME     =    211766.7456
                                                    Density    =         0.9819
 DV/DL  =        21.5806
 ------------------------------------------------------------------------------

      R M S  F L U C T U A T I O N S

 NSTEP =   500000   TIME(PS) =    1200.000  TEMP(K) =     2.08  PRESS =   146.7
 Etot   =       169.7982  EKtot   =        86.1924  EPtot      =       146.2630
 BOND   =         0.7848  ANGLE   =         1.2141  DIHED      =         0.0911
 1-4 NB =         0.2894  1-4 EEL =         0.0201  VDWAALS    =       127.5408
 EELEC  =       223.8757  EHBOND  =         0.0000  RESTRAINT  =         0.0000
 EKCMT  =        60.9113  VIRIAL  =       678.1048  VOLUME     =      1384.9250
                                                    Density    =         0.0061
 DV/DL  =         9.1118
 ------------------------------------------------------------------------------

      DV/DL, AVERAGES OVER  500000 STEPS

 NSTEP =   500000   TIME(PS) =    1200.000  TEMP(K) =     2.08  PRESS =     0.0
 Etot   =         0.0000  EKtot   =         0.0000  EPtot      =        21.5806
 BOND   =         0.0000  ANGLE   =         0.0000  DIHED      =         0.0000
 1-4 NB =         0.0000  1-4 EEL =       -10.5238  VDWAALS    =         0.0000
 EELEC  =        32.1044  EHBOND  =         0.0000  RESTRAINT  =         0.0000
 EKCMT  =         0.0000  VIRIAL  =         0.0000  VOLUME     =         0.0000
                                                    Density    =         0.0000
 DV/DL  =        21.5806
 ------------------------------------------------------------------------------
