-------------------------------------------------------
          Amber 18 PMEMD                              2018
          -------------------------------------------------------

  [-O]verwriting output

File Assignments:

 Here is the input file:

 &cntrl
   nstlim=500000, nscm=1000,
   ntx=5, irest=1, ntpr=1000,
   tempi=300.0, temp0=300.0, ntt=3, gamma_ln=2.0,
   ntp=1, pres0=1.01325, taup=5.0,
   ntb=2, igb=0, cut=10.0,
   dt=0.002, ig=-1,
   ntc=2, ntf=2,
   iwrap=0,
   ntwr=1000, ntwx=50000, ntave=1000,
   ioutfm=1, ntwv=-1,
   ifsc = 0, icfe=1,
   clambda=0.68392,
   timask1=':1',
   timask2=':2', crgmask = ':2',
/

Note: ig = -1. Setting random seed to   356696 based on wallclock time in
      microseconds.

--------------------------------------------------------------------------------
   1.  RESOURCE   USE:
--------------------------------------------------------------------------------

 getting box info from netcdf restart file
 NATOM  =      14 NTYPES =       6 NBONH =       6 MBONA  =       6
 NTHETH =      12 MTHETA =       6 NPHIH =      24 MPHIA  =       2
 NHPARM =       0 NPARM  =       0 NNB   =      44 NRES   =       2
 NBONA  =       6 NTHETA =       6 NPHIA =       2 NUMBND =       3
 NUMANG =       4 NPTRA  =       3 NATYP =       6 NPHB   =       1
 IFBOX  =       2 NMXRS  =       7 IFCAP =       0 NEXTRA =       0
 NCOPY  =       0

     BOX TYPE: TRUNCATED OCTAHEDRON

--------------------------------------------------------------------------------
   2.  CONTROL  DATA  FOR  THE  RUN
--------------------------------------------------------------------------------

default_name

General flags:
     imin    =       0, nmropt  =       0

Nature and format of input:
     ntx     =       5, irest   =       1, ntrx    =       1

Nature and format of output:
     ntxo    =       2, ntpr    =    1000, ntrx    =       1, ntwr    =    1000
     iwrap   =       0, ntwx    =   50000, ntwv    =      -1, ntwe    =       0
     ioutfm  =       1, ntwprt  =       0, idecomp =       0, rbornstat=      0

Potential function:
     ntf     =       2, ntb     =       2, igb     =       0, nsnb    =      25
     ipol    =       0, gbsa    =       0, iesp    =       0
     dielc   =   1.00000, cut     =  10.00000, intdiel =   1.00000

Frozen or restrained atoms:
     ibelly  =       0, ntr     =       0

Molecular dynamics:
     nstlim  =    500000, nscm    =      1000, nrespa  =         1
     t       =   0.00000, dt      =   0.00200, vlimit  =  -1.00000

Langevin dynamics temperature regulation:
     ig      =  356696
     temp0   = 300.00000, tempi   = 300.00000, gamma_ln=   2.00000

Pressure regulation:
     ntp     =       1
     pres0   =   1.01325, comp    =  44.60000, taup    =   5.00000

SHAKE:
     ntc     =       2, jfastw  =       0
     tol     =   0.00001

Free energy options:
     icfe    =       1, ifsc    =       0, klambda =       1
     clambda =  0.6839, scalpha =  0.5000, scbeta  = 12.0000
     sceeorder =       2
     dynlmb =  0.0000 logdvdl =       0

Ewald parameters:
     verbose =       0, ew_type =       0, nbflag  =       1, use_pme =       1
     vdwmeth =       1, eedmeth =       1, netfrc  =       1
     Box X =   66.953   Box Y =   66.953   Box Z =   66.953
     Alpha =  109.471   Beta  =  109.471   Gamma =  109.471
     NFFT1 =   64       NFFT2 =   64       NFFT3 =   64
     Cutoff=   10.000   Tol   =0.100E-04
     Ewald Coefficient =  0.27511
     Interpolation order =    4
     TI Mask 1 :1; matches      7 atoms
     TI Mask 2 :2; matches      7 atoms
     TI region 1:       7 atoms
     TI region 2:       7 atoms
Removing charge of      -0.8188 from atom       8
Removing charge of      -0.8188 from atom       9
Removing charge of       0.8054 from atom      10
Removing charge of      -0.1021 from atom      11
Removing charge of      -0.0219 from atom      12
Removing charge of      -0.0219 from atom      13
Removing charge of      -0.0219 from atom      14
Total charge of  -0.99999900 removed from       7 atoms
     Checking for mismatched coordinates.

--------------------------------------------------------------------------------
   3.  ATOMIC COORDINATES AND VELOCITIES
--------------------------------------------------------------------------------

default_name
 begin time read from input coords =   200.000 ps

 Number of triangulated 3-point waters found:        0

     Sum of charges for TI region  1 =  -0.99999900
     Assuming uniform neutralizing plasma

     Sum of charges for TI region  2 =   0.00000000
     Forcing neutrality...

--------------------------------------------------------------------------------
   4.  RESULTS
 NSTEP =     1000   TIME(PS) =     202.000  TEMP(K) =   281.57  PRESS =     0.9
 Etot   =        16.8979  EKtot   =         5.0358  EPtot      =        11.8621
 BOND   =         1.8531  ANGLE   =         3.6548  DIHED      =         5.2277
 1-4 NB =         0.2946  1-4 EEL =         3.3013  VDWAALS    =        -0.0001
 EELEC  =        -2.4693  EHBOND  =         0.0000  RESTRAINT  =         0.0000
 EKCMT  =         1.1657  VIRIAL  =        -3.2978  VOLUME     =    231037.1871
                                                    Density    =         0.0004
 DV/DL  =        -2.6324
 ------------------------------------------------------------------------------

      A V E R A G E S   O V E R    1000 S T E P S

 NSTEP =     1000   TIME(PS) =     202.000  TEMP(K) =   381.97  PRESS =     1.0
 Etot   =        21.3762  EKtot   =         6.8315  EPtot      =        14.5447
 BOND   =         1.7332  ANGLE   =         6.0922  DIHED      =         5.3310
 1-4 NB =         0.5306  1-4 EEL =         3.3259  VDWAALS    =        -0.0001
 EELEC  =        -2.4679  EHBOND  =         0.0000  RESTRAINT  =         0.0000
 EKCMT  =         1.9593  VIRIAL  =        -3.1006  VOLUME     =    231037.2921
                                                    Density    =         0.0004
 DV/DL  =        -2.7144
 ------------------------------------------------------------------------------

      R M S  F L U C T U A T I O N S

 NSTEP =     1000   TIME(PS) =     202.000  TEMP(K) =    91.23  PRESS =     0.6
 Etot   =         1.4545  EKtot   =         1.6316  EPtot      =         1.7037
 BOND   =         1.1517  ANGLE   =         1.4328  DIHED      =         0.1483
 1-4 NB =         0.3836  1-4 EEL =         0.0738  VDWAALS    =         0.0000
 EELEC  =         0.0009  EHBOND  =         0.0000  RESTRAINT  =         0.0000
 EKCMT  =         1.2934  VIRIAL  =         2.2128  VOLUME     =         0.2539
                                                    Density    =         0.0000
 DV/DL  =         0.2333
 ------------------------------------------------------------------------------

      A V E R A G E S   O V E R    1000 S T E P S

 NSTEP =     1000   TIME(PS) =     202.000  TEMP(K) =   381.97  PRESS =     1.0
 Etot   =        21.3762  EKtot   =         6.8315  EPtot      =        14.5447
 BOND   =         1.7332  ANGLE   =         6.0922  DIHED      =         5.3310
 1-4 NB =         0.5306  1-4 EEL =         3.3259  VDWAALS    =        -0.0001
 EELEC  =        -2.4679  EHBOND  =         0.0000  RESTRAINT  =         0.0000
 EKCMT  =         1.9593  VIRIAL  =        -3.1006  VOLUME     =    231037.2921
                                                    Density    =         0.0004
 DV/DL  =        -2.7144
 ------------------------------------------------------------------------------

      R M S  F L U C T U A T I O N S

 NSTEP =     1000   TIME(PS) =     202.000  TEMP(K) =    91.23  PRESS =     0.6
 Etot   =         1.4545  EKtot   =         1.6316  EPtot      =         1.7037
 BOND   =         1.1517  ANGLE   =         1.4328  DIHED      =         0.1483
 1-4 NB =         0.3836  1-4 EEL =         0.0738  VDWAALS    =         0.0000
 EELEC  =         0.0009  EHBOND  =         0.0000  RESTRAINT  =         0.0000
 EKCMT  =         1.2934  VIRIAL  =         2.2128  VOLUME     =         0.2539
                                                    Density    =         0.0000
 DV/DL  =         0.2333
 ------------------------------------------------------------------------------

      DV/DL, AVERAGES OVER    1000 STEPS

 NSTEP =     1000   TIME(PS) =     202.000  TEMP(K) =    91.23  PRESS =     0.0
 Etot   =         0.0000  EKtot   =         0.0000  EPtot      =        -2.7144
 BOND   =         0.0000  ANGLE   =         0.0000  DIHED      =         0.0000
 1-4 NB =         0.0000  1-4 EEL =       -10.5223  VDWAALS    =         0.0000
 EELEC  =         7.8079  EHBOND  =         0.0000  RESTRAINT  =         0.0000
 EKCMT  =         0.0000  VIRIAL  =         0.0000  VOLUME     =         0.0000
                                                    Density    =         0.0000
 DV/DL  =        -2.7144
 ------------------------------------------------------------------------------

      A V E R A G E S   O V E R    1000 S T E P S

 NSTEP =     2000   TIME(PS) =     204.000  TEMP(K) =   247.35  PRESS =     0.9
 Etot   =        16.5705  EKtot   =         4.4237  EPtot      =        12.1467
 BOND   =         0.7787  ANGLE   =         4.7339  DIHED      =         5.3484
 1-4 NB =         0.4316  1-4 EEL =         3.3225  VDWAALS    =        -0.0001
 EELEC  =        -2.4683  EHBOND  =         0.0000  RESTRAINT  =         0.0000
 EKCMT  =         1.9032  VIRIAL  =        -2.7538  VOLUME     =    231037.2985
                                                    Density    =         0.0004
 DV/DL  =        -2.7026
 ------------------------------------------------------------------------------

      R M S  F L U C T U A T I O N S

 NSTEP =     2000   TIME(PS) =     204.000  TEMP(K) =    82.31  PRESS =     0.5
 Etot   =         1.6243  EKtot   =         1.4721  EPtot      =         1.1194
 BOND   =         0.5721  ANGLE   =         0.9014  DIHED      =         0.1251
 1-4 NB =         0.2270  1-4 EEL =         0.0555  VDWAALS    =         0.0000
 EELEC  =         0.0009  EHBOND  =         0.0000  RESTRAINT  =         0.0000
 EKCMT  =         1.3209  VIRIAL  =         1.6996  VOLUME     =         0.2524
                                                    Density    =         0.0000
 DV/DL  =         0.1756
 ------------------------------------------------------------------------------

      A V E R A G E S   O V E R    1000 S T E P S

 NSTEP =     2000   TIME(PS) =     204.000  TEMP(K) =   247.35  PRESS =     0.9
 Etot   =        16.5705  EKtot   =         4.4237  EPtot      =        12.1467
 BOND   =         0.7787  ANGLE   =         4.7339  DIHED      =         5.3484
 1-4 NB =         0.4316  1-4 EEL =         3.3225  VDWAALS    =        -0.0001
 EELEC  =        -2.4683  EHBOND  =         0.0000  RESTRAINT  =         0.0000
 EKCMT  =         1.9032  VIRIAL  =        -2.7538  VOLUME     =    231037.2985
                                                    Density    =         0.0004
 DV/DL  =        -2.7026
 ------------------------------------------------------------------------------

      R M S  F L U C T U A T I O N S

 NSTEP =     2000   TIME(PS) =     204.000  TEMP(K) =    82.31  PRESS =     0.5
 Etot   =         1.6243  EKtot   =         1.4721  EPtot      =         1.1194
 BOND   =         0.5721  ANGLE   =         0.9014  DIHED      =         0.1251
 1-4 NB =         0.2270  1-4 EEL =         0.0555  VDWAALS    =         0.0000
 EELEC  =         0.0009  EHBOND  =         0.0000  RESTRAINT  =         0.0000
 EKCMT  =         1.3209  VIRIAL  =         1.6996  VOLUME     =         0.2524
                                                    Density    =         0.0000
 DV/DL  =         0.1756
 ------------------------------------------------------------------------------

      DV/DL, AVERAGES OVER    1000 STEPS

 NSTEP =     2000   TIME(PS) =     204.000  TEMP(K) =    82.31  PRESS =     0.0
 Etot   =         0.0000  EKtot   =         0.0000  EPtot      =        -2.7026
 BOND   =         0.0000  ANGLE   =         0.0000  DIHED      =         0.0000
 1-4 NB =         0.0000  1-4 EEL =       -10.5117  VDWAALS    =         0.0000
 EELEC  =         7.8092  EHBOND  =         0.0000  RESTRAINT  =         0.0000
 EKCMT  =         0.0000  VIRIAL  =         0.0000  VOLUME     =         0.0000
                                                    Density    =         0.0000
 DV/DL  =        -2.7026
 ------------------------------------------------------------------------------

      A V E R A G E S   O V E R    1000 S T E P S

 NSTEP =   500000   TIME(PS) =    1200.000  TEMP(K) =   243.89  PRESS =     0.5
 Etot   =        16.7411  EKtot   =         4.3619  EPtot      =        12.3793
 BOND   =         0.9959  ANGLE   =         4.8063  DIHED      =         5.2800
 1-4 NB =         0.4492  1-4 EEL =         3.3185  VDWAALS    =        -0.0001
 EELEC  =        -2.4705  EHBOND  =         0.0000  RESTRAINT  =         0.0000
 EKCMT  =         0.8389  VIRIAL  =        -1.7829  VOLUME     =    230274.7989
                                                    Density    =         0.0004
 DV/DL  =        -2.6829
 ------------------------------------------------------------------------------

      R M S  F L U C T U A T I O N S

 NSTEP =   500000   TIME(PS) =    1200.000  TEMP(K) =    66.38  PRESS =     0.3
 Etot   =         1.3279  EKtot   =         1.1872  EPtot      =         1.1790
 BOND   =         0.7257  ANGLE   =         0.9019  DIHED      =         0.0716
 1-4 NB =         0.2543  1-4 EEL =         0.0506  VDWAALS    =         0.0000
 EELEC  =         0.0009  EHBOND  =         0.0000  RESTRAINT  =         0.0000
 EKCMT  =         0.5593  VIRIAL  =         1.6592  VOLUME     =         0.5285
                                                    Density    =         0.0000
 DV/DL  =         0.1600
 ------------------------------------------------------------------------------

      A V E R A G E S   O V E R    1000 S T E P S

 NSTEP =   500000   TIME(PS) =    1200.000  TEMP(K) =   243.89  PRESS =     0.5
 Etot   =        16.7411  EKtot   =         4.3619  EPtot      =        12.3793
 BOND   =         0.9959  ANGLE   =         4.8063  DIHED      =         5.2800
 1-4 NB =         0.4492  1-4 EEL =         3.3185  VDWAALS    =        -0.0001
 EELEC  =        -2.4705  EHBOND  =         0.0000  RESTRAINT  =         0.0000
 EKCMT  =         0.8389  VIRIAL  =        -1.7829  VOLUME     =    230274.7989
                                                    Density    =         0.0004
 DV/DL  =        -2.6829
 ------------------------------------------------------------------------------

      R M S  F L U C T U A T I O N S

 NSTEP =   500000   TIME(PS) =    1200.000  TEMP(K) =    66.38  PRESS =     0.3
 Etot   =         1.3279  EKtot   =         1.1872  EPtot      =         1.1790
 BOND   =         0.7257  ANGLE   =         0.9019  DIHED      =         0.0716
 1-4 NB =         0.2543  1-4 EEL =         0.0506  VDWAALS    =         0.0000
 EELEC  =         0.0009  EHBOND  =         0.0000  RESTRAINT  =         0.0000
 EKCMT  =         0.5593  VIRIAL  =         1.6592  VOLUME     =         0.5285
                                                    Density    =         0.0000
 DV/DL  =         0.1600
 ------------------------------------------------------------------------------

      DV/DL, AVERAGES OVER    1000 STEPS

 NSTEP =   500000   TIME(PS) =    1200.000  TEMP(K) =    66.38  PRESS =     0.0
 Etot   =         0.0000  EKtot   =         0.0000  EPtot      =        -2.6829
 BOND   =         0.0000  ANGLE   =         0.0000  DIHED      =         0.0000
 1-4 NB =         0.0000  1-4 EEL =       -10.4991  VDWAALS    =         0.0000
 EELEC  =         7.8161  EHBOND  =         0.0000  RESTRAINT  =         0.0000
 EKCMT  =         0.0000  VIRIAL  =         0.0000  VOLUME     =         0.0000
                                                    Density    =         0.0000
 DV/DL  =        -2.6829
 ------------------------------------------------------------------------------

      A V E R A G E S   O V E R  500000 S T E P S

 NSTEP =   500000   TIME(PS) =    1200.000  TEMP(K) =   299.46  PRESS =     0.6
 Etot   =        18.0713  EKtot   =         5.3557  EPtot      =        12.7156
 BOND   =         0.9732  ANGLE   =         5.1658  DIHED      =         5.2787
 1-4 NB =         0.4485  1-4 EEL =         3.3187  VDWAALS    =        -0.0001
 EELEC  =        -2.4692  EHBOND  =         0.0000  RESTRAINT  =         0.0000
 EKCMT  =         1.8040  VIRIAL  =        -1.3940  VOLUME     =    230650.5234
                                                    Density    =         0.0004
 DV/DL  =        -2.6875
 ------------------------------------------------------------------------------

      R M S  F L U C T U A T I O N S

 NSTEP =   500000   TIME(PS) =    1200.000  TEMP(K) =    98.44  PRESS =     0.5
 Etot   =         2.3094  EKtot   =         1.7606  EPtot      =         1.5221
 BOND   =         0.8048  ANGLE   =         1.2015  DIHED      =         0.0886
 1-4 NB =         0.2638  1-4 EEL =         0.0547  VDWAALS    =         0.0000
 EELEC  =         0.0012  EHBOND  =         0.0000  RESTRAINT  =         0.0000
 EKCMT  =         1.4790  VIRIAL  =         2.1274  VOLUME     =       223.1096
                                                    Density    =         0.0000
 DV/DL  =         0.1731
 ------------------------------------------------------------------------------

      A V E R A G E S   O V E R  500000 S T E P S

 NSTEP =   500000   TIME(PS) =    1200.000  TEMP(K) =   299.46  PRESS =     0.6
 Etot   =        18.0713  EKtot   =         5.3557  EPtot      =        12.7156
 BOND   =         0.9732  ANGLE   =         5.1658  DIHED      =         5.2787
 1-4 NB =         0.4485  1-4 EEL =         3.3187  VDWAALS    =        -0.0001
 EELEC  =        -2.4692  EHBOND  =         0.0000  RESTRAINT  =         0.0000
 EKCMT  =         1.8040  VIRIAL  =        -1.3940  VOLUME     =    230650.5234
                                                    Density    =         0.0004
 DV/DL  =        -2.6875
 ------------------------------------------------------------------------------

      R M S  F L U C T U A T I O N S

 NSTEP =   500000   TIME(PS) =    1200.000  TEMP(K) =    98.44  PRESS =     0.5
 Etot   =         2.3094  EKtot   =         1.7606  EPtot      =         1.5221
 BOND   =         0.8048  ANGLE   =         1.2015  DIHED      =         0.0886
 1-4 NB =         0.2638  1-4 EEL =         0.0547  VDWAALS    =         0.0000
 EELEC  =         0.0012  EHBOND  =         0.0000  RESTRAINT  =         0.0000
 EKCMT  =         1.4790  VIRIAL  =         2.1274  VOLUME     =       223.1096
                                                    Density    =         0.0000
 DV/DL  =         0.1731
 ------------------------------------------------------------------------------

      DV/DL, AVERAGES OVER  500000 STEPS

 NSTEP =   500000   TIME(PS) =    1200.000  TEMP(K) =    98.44  PRESS =     0.0
 Etot   =         0.0000  EKtot   =         0.0000  EPtot      =        -2.6875
 BOND   =         0.0000  ANGLE   =         0.0000  DIHED      =         0.0000
 1-4 NB =         0.0000  1-4 EEL =       -10.4994  VDWAALS    =         0.0000
 EELEC  =         7.8120  EHBOND  =         0.0000  RESTRAINT  =         0.0000
 EKCMT  =         0.0000  VIRIAL  =         0.0000  VOLUME     =         0.0000
                                                    Density    =         0.0000
 DV/DL  =        -2.6875
 ------------------------------------------------------------------------------
