-------------------------------------------------------
          Amber 18 PMEMD                              2018
          -------------------------------------------------------

  [-O]verwriting output

File Assignments:

 Here is the input file:

 &cntrl
   nstlim=500000, nscm=1000,
   ntx=5, irest=1, ntpr=1000,
   tempi=300.0, temp0=300.0, ntt=3, gamma_ln=2.0,
   ntp=1, pres0=1.01325, taup=5.0,
   ntb=2, igb=0, cut=10.0,
   dt=0.002, ig=-1,
   ntc=2, ntf=2,
   iwrap=0,
   ntwr=1000, ntwx=50000, ntave=1000,
   ioutfm=1, ntwv=-1,
   ifsc = 0, icfe=1,
   clambda=0.79366,
   timask1=':1',
   timask2=':2', crgmask = ':2',
/

Note: ig = -1. Setting random seed to   735340 based on wallclock time in
      microseconds.

--------------------------------------------------------------------------------
   1.  RESOURCE   USE:
--------------------------------------------------------------------------------

 getting box info from netcdf restart file
 NATOM  =   20852 NTYPES =       6 NBONH =   20844 MBONA  =       6
 NTHETH =      12 MTHETA =       6 NPHIH =      24 MPHIA  =       2
 NHPARM =       0 NPARM  =       0 NNB   =   27828 NRES   =    6948
 NBONA  =       6 NTHETA =       6 NPHIA =       2 NUMBND =       5
 NUMANG =       4 NPTRA  =       3 NATYP =       6 NPHB   =       1
 IFBOX  =       2 NMXRS  =       7 IFCAP =       0 NEXTRA =       0
 NCOPY  =       0

     BOX TYPE: TRUNCATED OCTAHEDRON

--------------------------------------------------------------------------------
   2.  CONTROL  DATA  FOR  THE  RUN
--------------------------------------------------------------------------------

default_name

General flags:
     imin    =       0, nmropt  =       0

Nature and format of input:
     ntx     =       5, irest   =       1, ntrx    =       1

Nature and format of output:
     ntxo    =       2, ntpr    =    1000, ntrx    =       1, ntwr    =    1000
     iwrap   =       0, ntwx    =   50000, ntwv    =      -1, ntwe    =       0
     ioutfm  =       1, ntwprt  =       0, idecomp =       0, rbornstat=      0

Potential function:
     ntf     =       2, ntb     =       2, igb     =       0, nsnb    =      25
     ipol    =       0, gbsa    =       0, iesp    =       0
     dielc   =   1.00000, cut     =  10.00000, intdiel =   1.00000

Frozen or restrained atoms:
     ibelly  =       0, ntr     =       0

Molecular dynamics:
     nstlim  =    500000, nscm    =      1000, nrespa  =         1
     t       =   0.00000, dt      =   0.00200, vlimit  =  -1.00000

Langevin dynamics temperature regulation:
     ig      =  735340
     temp0   = 300.00000, tempi   = 300.00000, gamma_ln=   2.00000

Pressure regulation:
     ntp     =       1
     pres0   =   1.01325, comp    =  44.60000, taup    =   5.00000

SHAKE:
     ntc     =       2, jfastw  =       0
     tol     =   0.00001

Free energy options:
     icfe    =       1, ifsc    =       0, klambda =       1
     clambda =  0.7937, scalpha =  0.5000, scbeta  = 12.0000
     sceeorder =       2
     dynlmb =  0.0000 logdvdl =       0

Ewald parameters:
     verbose =       0, ew_type =       0, nbflag  =       1, use_pme =       1
     vdwmeth =       1, eedmeth =       1, netfrc  =       1
     Box X =   66.953   Box Y =   66.953   Box Z =   66.953
     Alpha =  109.471   Beta  =  109.471   Gamma =  109.471
     NFFT1 =   64       NFFT2 =   64       NFFT3 =   64
     Cutoff=   10.000   Tol   =0.100E-04
     Ewald Coefficient =  0.27511
     Interpolation order =    4
     TI Mask 1 :1; matches      7 atoms
     TI Mask 2 :2; matches      7 atoms
     TI region 1:   20845 atoms
     TI region 2:   20845 atoms
Removing charge of      -0.8188 from atom       8
Removing charge of      -0.8188 from atom       9
Removing charge of       0.8054 from atom      10
Removing charge of      -0.1021 from atom      11
Removing charge of      -0.0219 from atom      12
Removing charge of      -0.0219 from atom      13
Removing charge of      -0.0219 from atom      14
Total charge of  -0.99999900 removed from       7 atoms
     Checking for mismatched coordinates.

--------------------------------------------------------------------------------
   3.  ATOMIC COORDINATES AND VELOCITIES
--------------------------------------------------------------------------------

default_name
 begin time read from input coords =   200.000 ps

 Number of triangulated 3-point waters found:     6946

     Sum of charges for TI region  1 =  -1.00000662
     Assuming uniform neutralizing plasma

     Sum of charges for TI region  2 =  -0.00000762
     Forcing neutrality...

--------------------------------------------------------------------------------
   4.  RESULTS
 NSTEP =     1000   TIME(PS) =     202.000  TEMP(K) =   298.59  PRESS =  -890.9
 Etot   =    -64178.2421  EKtot   =     12369.8900  EPtot      =    -76548.1321
 BOND   =         0.1094  ANGLE   =         4.8523  DIHED      =         5.2859
 1-4 NB =         0.6310  1-4 EEL =         2.2077  VDWAALS    =     14262.3729
 EELEC  =    -90823.5913  EHBOND  =         0.0000  RESTRAINT  =         0.0000
 EKCMT  =      6182.6907  VIRIAL  =     10546.5778  VOLUME     =    226872.4509
                                                    Density    =         0.9164
 DV/DL  =        33.0481
 ------------------------------------------------------------------------------

      A V E R A G E S   O V E R    1000 S T E P S

 NSTEP =     1000   TIME(PS) =     202.000  TEMP(K) =   300.10  PRESS = -1019.5
 Etot   =    -63979.5342  EKtot   =     12432.2327  EPtot      =    -76411.7669
 BOND   =         0.4568  ANGLE   =         4.4767  DIHED      =         5.2936
 1-4 NB =         0.4262  1-4 EEL =         2.1681  VDWAALS    =     14128.9564
 EELEC  =    -90553.5447  EHBOND  =         0.0000  RESTRAINT  =         0.0000
 EKCMT  =      6261.9953  VIRIAL  =     11301.8154  VOLUME     =    228839.6675
                                                    Density    =         0.9085
 DV/DL  =        34.5441
 ------------------------------------------------------------------------------

      R M S  F L U C T U A T I O N S

 NSTEP =     1000   TIME(PS) =     202.000  TEMP(K) =     1.67  PRESS =   156.8
 Etot   =        79.8907  EKtot   =        69.0264  EPtot      =        79.2542
 BOND   =         0.3568  ANGLE   =         0.8406  DIHED      =         0.0875
 1-4 NB =         0.1850  1-4 EEL =         0.0286  VDWAALS    =       142.6925
 EELEC  =       181.1177  EHBOND  =         0.0000  RESTRAINT  =         0.0000
 EKCMT  =        58.2193  VIRIAL  =       794.7910  VOLUME     =      1214.3260
                                                    Density    =         0.0048
 DV/DL  =         7.8215
 ------------------------------------------------------------------------------

      A V E R A G E S   O V E R    1000 S T E P S

 NSTEP =     1000   TIME(PS) =     202.000  TEMP(K) =   300.10  PRESS = -1019.5
 Etot   =    -63979.5342  EKtot   =     12432.2327  EPtot      =    -76411.7669
 BOND   =         0.4568  ANGLE   =         4.4767  DIHED      =         5.2936
 1-4 NB =         0.4262  1-4 EEL =         2.1681  VDWAALS    =     14128.9564
 EELEC  =    -90553.5447  EHBOND  =         0.0000  RESTRAINT  =         0.0000
 EKCMT  =      6261.9953  VIRIAL  =     11301.8154  VOLUME     =    228839.6675
                                                    Density    =         0.9085
 DV/DL  =        34.5441
 ------------------------------------------------------------------------------

      R M S  F L U C T U A T I O N S

 NSTEP =     1000   TIME(PS) =     202.000  TEMP(K) =     1.67  PRESS =   156.8
 Etot   =        79.8907  EKtot   =        69.0264  EPtot      =        79.2542
 BOND   =         0.3568  ANGLE   =         0.8406  DIHED      =         0.0875
 1-4 NB =         0.1850  1-4 EEL =         0.0286  VDWAALS    =       142.6925
 EELEC  =       181.1177  EHBOND  =         0.0000  RESTRAINT  =         0.0000
 EKCMT  =        58.2193  VIRIAL  =       794.7910  VOLUME     =      1214.3260
                                                    Density    =         0.0048
 DV/DL  =         7.8215
 ------------------------------------------------------------------------------

      DV/DL, AVERAGES OVER    1000 STEPS

 NSTEP =     1000   TIME(PS) =     202.000  TEMP(K) =     1.67  PRESS =     0.0
 Etot   =         0.0000  EKtot   =         0.0000  EPtot      =        34.5441
 BOND   =         0.0000  ANGLE   =         0.0000  DIHED      =         0.0000
 1-4 NB =         0.0000  1-4 EEL =       -10.5076  VDWAALS    =         0.0000
 EELEC  =        45.0517  EHBOND  =         0.0000  RESTRAINT  =         0.0000
 EKCMT  =         0.0000  VIRIAL  =         0.0000  VOLUME     =         0.0000
                                                    Density    =         0.0000
 DV/DL  =        34.5441
 ------------------------------------------------------------------------------

      A V E R A G E S   O V E R    1000 S T E P S

 NSTEP =     2000   TIME(PS) =     204.000  TEMP(K) =   299.45  PRESS =  -805.4
 Etot   =    -64240.0573  EKtot   =     12405.3995  EPtot      =    -76645.4568
 BOND   =         0.7954  ANGLE   =         4.8650  DIHED      =         5.2709
 1-4 NB =         0.4457  1-4 EEL =         2.1688  VDWAALS    =     14274.8987
 EELEC  =    -90933.9013  EHBOND  =         0.0000  RESTRAINT  =         0.0000
 EKCMT  =      6229.5539  VIRIAL  =     10146.3928  VOLUME     =    225113.7731
                                                    Density    =         0.9235
 DV/DL  =        39.8236
 ------------------------------------------------------------------------------

      R M S  F L U C T U A T I O N S

 NSTEP =     2000   TIME(PS) =     204.000  TEMP(K) =     1.90  PRESS =   160.9
 Etot   =        64.1514  EKtot   =        78.6386  EPtot      =        71.7457
 BOND   =         0.6325  ANGLE   =         0.9570  DIHED      =         0.0607
 1-4 NB =         0.2460  1-4 EEL =         0.0318  VDWAALS    =       131.6517
 EELEC  =       146.6068  EHBOND  =         0.0000  RESTRAINT  =         0.0000
 EKCMT  =        54.5142  VIRIAL  =       806.2856  VOLUME     =       955.0681
                                                    Density    =         0.0039
 DV/DL  =         7.7826
 ------------------------------------------------------------------------------

      A V E R A G E S   O V E R    1000 S T E P S

 NSTEP =     2000   TIME(PS) =     204.000  TEMP(K) =   299.45  PRESS =  -805.4
 Etot   =    -64240.0573  EKtot   =     12405.3995  EPtot      =    -76645.4568
 BOND   =         0.7954  ANGLE   =         4.8650  DIHED      =         5.2709
 1-4 NB =         0.4457  1-4 EEL =         2.1688  VDWAALS    =     14274.8987
 EELEC  =    -90933.9013  EHBOND  =         0.0000  RESTRAINT  =         0.0000
 EKCMT  =      6229.5539  VIRIAL  =     10146.3928  VOLUME     =    225113.7731
                                                    Density    =         0.9235
 DV/DL  =        39.8236
 ------------------------------------------------------------------------------

      R M S  F L U C T U A T I O N S

 NSTEP =     2000   TIME(PS) =     204.000  TEMP(K) =     1.90  PRESS =   160.9
 Etot   =        64.1514  EKtot   =        78.6386  EPtot      =        71.7457
 BOND   =         0.6325  ANGLE   =         0.9570  DIHED      =         0.0607
 1-4 NB =         0.2460  1-4 EEL =         0.0318  VDWAALS    =       131.6517
 EELEC  =       146.6068  EHBOND  =         0.0000  RESTRAINT  =         0.0000
 EKCMT  =        54.5142  VIRIAL  =       806.2856  VOLUME     =       955.0681
                                                    Density    =         0.0039
 DV/DL  =         7.7826
 ------------------------------------------------------------------------------

      DV/DL, AVERAGES OVER    1000 STEPS

 NSTEP =     2000   TIME(PS) =     204.000  TEMP(K) =     1.90  PRESS =     0.0
 Etot   =         0.0000  EKtot   =         0.0000  EPtot      =        39.8236
 BOND   =         0.0000  ANGLE   =         0.0000  DIHED      =         0.0000
 1-4 NB =         0.0000  1-4 EEL =       -10.5108  VDWAALS    =         0.0000
 EELEC  =        50.3344  EHBOND  =         0.0000  RESTRAINT  =         0.0000
 EKCMT  =         0.0000  VIRIAL  =         0.0000  VOLUME     =         0.0000
                                                    Density    =         0.0000
 DV/DL  =        39.8236
 ------------------------------------------------------------------------------

      A V E R A G E S   O V E R    1000 S T E P S

 NSTEP =   500000   TIME(PS) =    1200.000  TEMP(K) =   299.86  PRESS =    16.7
 Etot   =    -64901.9348  EKtot   =     12422.3789  EPtot      =    -77324.3137
 BOND   =         0.9155  ANGLE   =         5.6143  DIHED      =         5.3117
 1-4 NB =         0.4765  1-4 EEL =         2.1713  VDWAALS    =     14610.4755
 EELEC  =    -91949.2785  EHBOND  =         0.0000  RESTRAINT  =         0.0000
 EKCMT  =      6222.2945  VIRIAL  =      6147.2393  VOLUME     =    208464.0785
                                                    Density    =         0.9973
 DV/DL  =        31.0780
 ------------------------------------------------------------------------------

      R M S  F L U C T U A T I O N S

 NSTEP =   500000   TIME(PS) =    1200.000  TEMP(K) =     1.58  PRESS =   155.6
 Etot   =       113.8539  EKtot   =        65.5945  EPtot      =       109.9361
 BOND   =         0.7772  ANGLE   =         1.1365  DIHED      =         0.0936
 1-4 NB =         0.2819  1-4 EEL =         0.0387  VDWAALS    =       172.9747
 EELEC  =       244.3936  EHBOND  =         0.0000  RESTRAINT  =         0.0000
 EKCMT  =        53.5760  VIRIAL  =       714.2690  VOLUME     =        51.0396
                                                    Density    =         0.0002
 DV/DL  =         8.5856
 ------------------------------------------------------------------------------

      A V E R A G E S   O V E R    1000 S T E P S

 NSTEP =   500000   TIME(PS) =    1200.000  TEMP(K) =   299.86  PRESS =    16.7
 Etot   =    -64901.9348  EKtot   =     12422.3789  EPtot      =    -77324.3137
 BOND   =         0.9155  ANGLE   =         5.6143  DIHED      =         5.3117
 1-4 NB =         0.4765  1-4 EEL =         2.1713  VDWAALS    =     14610.4755
 EELEC  =    -91949.2785  EHBOND  =         0.0000  RESTRAINT  =         0.0000
 EKCMT  =      6222.2945  VIRIAL  =      6147.2393  VOLUME     =    208464.0785
                                                    Density    =         0.9973
 DV/DL  =        31.0780
 ------------------------------------------------------------------------------

      R M S  F L U C T U A T I O N S

 NSTEP =   500000   TIME(PS) =    1200.000  TEMP(K) =     1.58  PRESS =   155.6
 Etot   =       113.8539  EKtot   =        65.5945  EPtot      =       109.9361
 BOND   =         0.7772  ANGLE   =         1.1365  DIHED      =         0.0936
 1-4 NB =         0.2819  1-4 EEL =         0.0387  VDWAALS    =       172.9747
 EELEC  =       244.3936  EHBOND  =         0.0000  RESTRAINT  =         0.0000
 EKCMT  =        53.5760  VIRIAL  =       714.2690  VOLUME     =        51.0396
                                                    Density    =         0.0002
 DV/DL  =         8.5856
 ------------------------------------------------------------------------------

      DV/DL, AVERAGES OVER    1000 STEPS

 NSTEP =   500000   TIME(PS) =    1200.000  TEMP(K) =     1.58  PRESS =     0.0
 Etot   =         0.0000  EKtot   =         0.0000  EPtot      =        31.0780
 BOND   =         0.0000  ANGLE   =         0.0000  DIHED      =         0.0000
 1-4 NB =         0.0000  1-4 EEL =       -10.5230  VDWAALS    =         0.0000
 EELEC  =        41.6010  EHBOND  =         0.0000  RESTRAINT  =         0.0000
 EKCMT  =         0.0000  VIRIAL  =         0.0000  VOLUME     =         0.0000
                                                    Density    =         0.0000
 DV/DL  =        31.0780
 ------------------------------------------------------------------------------

      A V E R A G E S   O V E R  500000 S T E P S

 NSTEP =   500000   TIME(PS) =    1200.000  TEMP(K) =   300.11  PRESS =   -10.5
 Etot   =    -64867.2653  EKtot   =     12432.4719  EPtot      =    -77299.7373
 BOND   =         0.9449  ANGLE   =         5.1416  DIHED      =         5.2783
 1-4 NB =         0.4683  1-4 EEL =         2.1691  VDWAALS    =     14603.4671
 EELEC  =    -91917.2066  EHBOND  =         0.0000  RESTRAINT  =         0.0000
 EKCMT  =      6238.5651  VIRIAL  =      6288.7532  VOLUME     =    208838.3924
                                                    Density    =         0.9956
 DV/DL  =        35.4568
 ------------------------------------------------------------------------------

      R M S  F L U C T U A T I O N S

 NSTEP =   500000   TIME(PS) =    1200.000  TEMP(K) =     2.09  PRESS =   161.2
 Etot   =       183.6255  EKtot   =        86.4233  EPtot      =       158.8307
 BOND   =         0.7749  ANGLE   =         1.1976  DIHED      =         0.0873
 1-4 NB =         0.2753  1-4 EEL =         0.0354  VDWAALS    =       148.3115
 EELEC  =       258.1506  EHBOND  =         0.0000  RESTRAINT  =         0.0000
 EKCMT  =        61.4037  VIRIAL  =       737.7549  VOLUME     =      1618.7567
                                                    Density    =         0.0072
 DV/DL  =        10.1140
 ------------------------------------------------------------------------------

      A V E R A G E S   O V E R  500000 S T E P S

 NSTEP =   500000   TIME(PS) =    1200.000  TEMP(K) =   300.11  PRESS =   -10.5
 Etot   =    -64867.2653  EKtot   =     12432.4719  EPtot      =    -77299.7373
 BOND   =         0.9449  ANGLE   =         5.1416  DIHED      =         5.2783
 1-4 NB =         0.4683  1-4 EEL =         2.1691  VDWAALS    =     14603.4671
 EELEC  =    -91917.2066  EHBOND  =         0.0000  RESTRAINT  =         0.0000
 EKCMT  =      6238.5651  VIRIAL  =      6288.7532  VOLUME     =    208838.3924
                                                    Density    =         0.9956
 DV/DL  =        35.4568
 ------------------------------------------------------------------------------

      R M S  F L U C T U A T I O N S

 NSTEP =   500000   TIME(PS) =    1200.000  TEMP(K) =     2.09  PRESS =   161.2
 Etot   =       183.6255  EKtot   =        86.4233  EPtot      =       158.8307
 BOND   =         0.7749  ANGLE   =         1.1976  DIHED      =         0.0873
 1-4 NB =         0.2753  1-4 EEL =         0.0354  VDWAALS    =       148.3115
 EELEC  =       258.1506  EHBOND  =         0.0000  RESTRAINT  =         0.0000
 EKCMT  =        61.4037  VIRIAL  =       737.7549  VOLUME     =      1618.7567
                                                    Density    =         0.0072
 DV/DL  =        10.1140
 ------------------------------------------------------------------------------

      DV/DL, AVERAGES OVER  500000 STEPS

 NSTEP =   500000   TIME(PS) =    1200.000  TEMP(K) =     2.09  PRESS =     0.0
 Etot   =         0.0000  EKtot   =         0.0000  EPtot      =        35.4568
 BOND   =         0.0000  ANGLE   =         0.0000  DIHED      =         0.0000
 1-4 NB =         0.0000  1-4 EEL =       -10.5120  VDWAALS    =         0.0000
 EELEC  =        45.9689  EHBOND  =         0.0000  RESTRAINT  =         0.0000
 EKCMT  =         0.0000  VIRIAL  =         0.0000  VOLUME     =         0.0000
                                                    Density    =         0.0000
 DV/DL  =        35.4568
 ------------------------------------------------------------------------------
