-------------------------------------------------------
          Amber 18 PMEMD                              2018
          -------------------------------------------------------

  [-O]verwriting output

File Assignments:

 Here is the input file:

 &cntrl
   nstlim=500000, nscm=1000,
   ntx=5, irest=1, ntpr=1000,
   tempi=300.0, temp0=300.0, ntt=3, gamma_ln=2.0,
   ntp=1, pres0=1.01325, taup=5.0,
   ntb=2, igb=0, cut=10.0,
   dt=0.002, ig=-1,
   ntc=2, ntf=2,
   iwrap=0,
   ntwr=1000, ntwx=50000, ntave=1000,
   ioutfm=1, ntwv=-1,
   ifsc = 0, icfe=1,
   clambda=0.99078,
   timask1=':1',
   timask2=':2', crgmask = ':2',
/

Note: ig = -1. Setting random seed to   836070 based on wallclock time in
      microseconds.

--------------------------------------------------------------------------------
   1.  RESOURCE   USE:
--------------------------------------------------------------------------------

 getting box info from netcdf restart file
 NATOM  =   20855 NTYPES =       6 NBONH =   20847 MBONA  =       6
 NTHETH =      12 MTHETA =       6 NPHIH =      24 MPHIA  =       2
 NHPARM =       0 NPARM  =       0 NNB   =   27832 NRES   =    6949
 NBONA  =       6 NTHETA =       6 NPHIA =       2 NUMBND =       5
 NUMANG =       4 NPTRA  =       3 NATYP =       6 NPHB   =       1
 IFBOX  =       2 NMXRS  =       7 IFCAP =       0 NEXTRA =       0
 NCOPY  =       0

     BOX TYPE: TRUNCATED OCTAHEDRON

--------------------------------------------------------------------------------
   2.  CONTROL  DATA  FOR  THE  RUN
--------------------------------------------------------------------------------

default_name

General flags:
     imin    =       0, nmropt  =       0

Nature and format of input:
     ntx     =       5, irest   =       1, ntrx    =       1

Nature and format of output:
     ntxo    =       2, ntpr    =    1000, ntrx    =       1, ntwr    =    1000
     iwrap   =       0, ntwx    =   50000, ntwv    =      -1, ntwe    =       0
     ioutfm  =       1, ntwprt  =       0, idecomp =       0, rbornstat=      0

Potential function:
     ntf     =       2, ntb     =       2, igb     =       0, nsnb    =      25
     ipol    =       0, gbsa    =       0, iesp    =       0
     dielc   =   1.00000, cut     =  10.00000, intdiel =   1.00000

Frozen or restrained atoms:
     ibelly  =       0, ntr     =       0

Molecular dynamics:
     nstlim  =    500000, nscm    =      1000, nrespa  =         1
     t       =   0.00000, dt      =   0.00200, vlimit  =  -1.00000

Langevin dynamics temperature regulation:
     ig      =  836070
     temp0   = 300.00000, tempi   = 300.00000, gamma_ln=   2.00000

Pressure regulation:
     ntp     =       1
     pres0   =   1.01325, comp    =  44.60000, taup    =   5.00000

SHAKE:
     ntc     =       2, jfastw  =       0
     tol     =   0.00001

Free energy options:
     icfe    =       1, ifsc    =       0, klambda =       1
     clambda =  0.9908, scalpha =  0.5000, scbeta  = 12.0000
     sceeorder =       2
     dynlmb =  0.0000 logdvdl =       0

Ewald parameters:
     verbose =       0, ew_type =       0, nbflag  =       1, use_pme =       1
     vdwmeth =       1, eedmeth =       1, netfrc  =       1
     Box X =   66.953   Box Y =   66.953   Box Z =   66.953
     Alpha =  109.471   Beta  =  109.471   Gamma =  109.471
     NFFT1 =   64       NFFT2 =   64       NFFT3 =   64
     Cutoff=   10.000   Tol   =0.100E-04
     Ewald Coefficient =  0.27511
     Interpolation order =    4
     TI Mask 1 :1; matches      7 atoms
     TI Mask 2 :2; matches      7 atoms
     TI region 1:   20848 atoms
     TI region 2:   20848 atoms
Removing charge of      -0.8188 from atom       8
Removing charge of      -0.8188 from atom       9
Removing charge of       0.8054 from atom      10
Removing charge of      -0.1021 from atom      11
Removing charge of      -0.0219 from atom      12
Removing charge of      -0.0219 from atom      13
Removing charge of      -0.0219 from atom      14
Total charge of  -0.99999900 removed from       7 atoms
     Checking for mismatched coordinates.

--------------------------------------------------------------------------------
   3.  ATOMIC COORDINATES AND VELOCITIES
--------------------------------------------------------------------------------

default_name
 begin time read from input coords =   200.000 ps

 Number of triangulated 3-point waters found:     6947

     Sum of charges for TI region  1 =  -0.99999900
     Assuming uniform neutralizing plasma

     Sum of charges for TI region  2 =   0.00000000
     Forcing neutrality...

--------------------------------------------------------------------------------
   4.  RESULTS
 NSTEP =     1000   TIME(PS) =     202.000  TEMP(K) =   297.27  PRESS =  -624.9
 Etot   =    -53207.1648  EKtot   =     12316.7652  EPtot      =    -65523.9300
 BOND   =         0.6593  ANGLE   =         8.0716  DIHED      =         5.4344
 1-4 NB =         0.8279  1-4 EEL =         0.0980  VDWAALS    =      9744.9891
 EELEC  =    -75284.0103  EHBOND  =         0.0000  RESTRAINT  =         0.0000
 EKCMT  =      6202.5321  VIRIAL  =      9280.4457  VOLUME     =    228106.2544
                                                    Density    =         0.9115
 DV/DL  =        -9.9544
 ------------------------------------------------------------------------------

      A V E R A G E S   O V E R    1000 S T E P S

 NSTEP =     1000   TIME(PS) =     202.000  TEMP(K) =   299.51  PRESS =  -715.3
 Etot   =    -52958.1746  EKtot   =     12409.5241  EPtot      =    -65367.6988
 BOND   =         0.7787  ANGLE   =         4.8110  DIHED      =         5.2603
 1-4 NB =         0.4655  1-4 EEL =         0.0971  VDWAALS    =      9640.2236
 EELEC  =    -75019.3350  EHBOND  =         0.0000  RESTRAINT  =         0.0000
 EKCMT  =      6201.3472  VIRIAL  =      9746.6275  VOLUME     =    229570.9504
                                                    Density    =         0.9057
 DV/DL  =         8.6710
 ------------------------------------------------------------------------------

      R M S  F L U C T U A T I O N S

 NSTEP =     1000   TIME(PS) =     202.000  TEMP(K) =     1.88  PRESS =    92.6
 Etot   =       139.7798  EKtot   =        77.7527  EPtot      =       112.9291
 BOND   =         0.5842  ANGLE   =         1.1469  DIHED      =         0.0566
 1-4 NB =         0.2596  1-4 EEL =         0.0015  VDWAALS    =        97.9407
 EELEC  =       161.7738  EHBOND  =         0.0000  RESTRAINT  =         0.0000
 EKCMT  =        49.6813  VIRIAL  =       456.4434  VOLUME     =       838.4735
                                                    Density    =         0.0033
 DV/DL  =         8.9502
 ------------------------------------------------------------------------------

      A V E R A G E S   O V E R    1000 S T E P S

 NSTEP =     1000   TIME(PS) =     202.000  TEMP(K) =   299.51  PRESS =  -715.3
 Etot   =    -52958.1746  EKtot   =     12409.5241  EPtot      =    -65367.6988
 BOND   =         0.7787  ANGLE   =         4.8110  DIHED      =         5.2603
 1-4 NB =         0.4655  1-4 EEL =         0.0971  VDWAALS    =      9640.2236
 EELEC  =    -75019.3350  EHBOND  =         0.0000  RESTRAINT  =         0.0000
 EKCMT  =      6201.3472  VIRIAL  =      9746.6275  VOLUME     =    229570.9504
                                                    Density    =         0.9057
 DV/DL  =         8.6710
 ------------------------------------------------------------------------------

      R M S  F L U C T U A T I O N S

 NSTEP =     1000   TIME(PS) =     202.000  TEMP(K) =     1.88  PRESS =    92.6
 Etot   =       139.7798  EKtot   =        77.7527  EPtot      =       112.9291
 BOND   =         0.5842  ANGLE   =         1.1469  DIHED      =         0.0566
 1-4 NB =         0.2596  1-4 EEL =         0.0015  VDWAALS    =        97.9407
 EELEC  =       161.7738  EHBOND  =         0.0000  RESTRAINT  =         0.0000
 EKCMT  =        49.6813  VIRIAL  =       456.4434  VOLUME     =       838.4735
                                                    Density    =         0.0033
 DV/DL  =         8.9502
 ------------------------------------------------------------------------------

      DV/DL, AVERAGES OVER    1000 STEPS

 NSTEP =     1000   TIME(PS) =     202.000  TEMP(K) =     1.88  PRESS =     0.0
 Etot   =         0.0000  EKtot   =         0.0000  EPtot      =         8.6710
 BOND   =         0.0000  ANGLE   =         0.0000  DIHED      =         0.0000
 1-4 NB =         0.0000  1-4 EEL =       -10.5295  VDWAALS    =         0.0000
 EELEC  =        19.2005  EHBOND  =         0.0000  RESTRAINT  =         0.0000
 EKCMT  =         0.0000  VIRIAL  =         0.0000  VOLUME     =         0.0000
                                                    Density    =         0.0000
 DV/DL  =         8.6710
 ------------------------------------------------------------------------------

      A V E R A G E S   O V E R    1000 S T E P S

 NSTEP =     2000   TIME(PS) =     204.000  TEMP(K) =   301.45  PRESS =  -592.4
 Etot   =    -52945.6557  EKtot   =     12489.9977  EPtot      =    -65435.6534
 BOND   =         1.3153  ANGLE   =         6.0440  DIHED      =         5.3087
 1-4 NB =         0.5925  1-4 EEL =         0.0972  VDWAALS    =      9672.2462
 EELEC  =    -75121.2573  EHBOND  =         0.0000  RESTRAINT  =         0.0000
 EKCMT  =      6237.0334  VIRIAL  =      9139.3054  VOLUME     =    226852.6646
                                                    Density    =         0.9166
 DV/DL  =         3.5007
 ------------------------------------------------------------------------------

      R M S  F L U C T U A T I O N S

 NSTEP =     2000   TIME(PS) =     204.000  TEMP(K) =     2.33  PRESS =   132.1
 Etot   =       126.0857  EKtot   =        96.5685  EPtot      =        85.0131
 BOND   =         1.0318  ANGLE   =         1.3384  DIHED      =         0.1393
 1-4 NB =         0.4532  1-4 EEL =         0.0022  VDWAALS    =       111.0887
 EELEC  =       132.4534  EHBOND  =         0.0000  RESTRAINT  =         0.0000
 EKCMT  =        75.8293  VIRIAL  =       627.5570  VOLUME     =       665.8303
                                                    Density    =         0.0027
 DV/DL  =         7.1194
 ------------------------------------------------------------------------------

      A V E R A G E S   O V E R    1000 S T E P S

 NSTEP =     2000   TIME(PS) =     204.000  TEMP(K) =   301.45  PRESS =  -592.4
 Etot   =    -52945.6557  EKtot   =     12489.9977  EPtot      =    -65435.6534
 BOND   =         1.3153  ANGLE   =         6.0440  DIHED      =         5.3087
 1-4 NB =         0.5925  1-4 EEL =         0.0972  VDWAALS    =      9672.2462
 EELEC  =    -75121.2573  EHBOND  =         0.0000  RESTRAINT  =         0.0000
 EKCMT  =      6237.0334  VIRIAL  =      9139.3054  VOLUME     =    226852.6646
                                                    Density    =         0.9166
 DV/DL  =         3.5007
 ------------------------------------------------------------------------------

      R M S  F L U C T U A T I O N S

 NSTEP =     2000   TIME(PS) =     204.000  TEMP(K) =     2.33  PRESS =   132.1
 Etot   =       126.0857  EKtot   =        96.5685  EPtot      =        85.0131
 BOND   =         1.0318  ANGLE   =         1.3384  DIHED      =         0.1393
 1-4 NB =         0.4532  1-4 EEL =         0.0022  VDWAALS    =       111.0887
 EELEC  =       132.4534  EHBOND  =         0.0000  RESTRAINT  =         0.0000
 EKCMT  =        75.8293  VIRIAL  =       627.5570  VOLUME     =       665.8303
                                                    Density    =         0.0027
 DV/DL  =         7.1194
 ------------------------------------------------------------------------------

      DV/DL, AVERAGES OVER    1000 STEPS

 NSTEP =     2000   TIME(PS) =     204.000  TEMP(K) =     2.33  PRESS =     0.0
 Etot   =         0.0000  EKtot   =         0.0000  EPtot      =         3.5007
 BOND   =         0.0000  ANGLE   =         0.0000  DIHED      =         0.0000
 1-4 NB =         0.0000  1-4 EEL =       -10.5423  VDWAALS    =         0.0000
 EELEC  =        14.0430  EHBOND  =         0.0000  RESTRAINT  =         0.0000
 EKCMT  =         0.0000  VIRIAL  =         0.0000  VOLUME     =         0.0000
                                                    Density    =         0.0000
 DV/DL  =         3.5007
 ------------------------------------------------------------------------------

      A V E R A G E S   O V E R    1000 S T E P S

 NSTEP =   500000   TIME(PS) =    1200.000  TEMP(K) =   300.39  PRESS =   -31.2
 Etot   =    -53782.4718  EKtot   =     12445.9515  EPtot      =    -66228.4233
 BOND   =         0.9480  ANGLE   =         4.4398  DIHED      =         5.2610
 1-4 NB =         0.4693  1-4 EEL =         0.0971  VDWAALS    =      9850.7459
 EELEC  =    -76090.3844  EHBOND  =         0.0000  RESTRAINT  =         0.0000
 EKCMT  =      6245.8788  VIRIAL  =      6388.4560  VOLUME     =    211393.3706
                                                    Density    =         0.9836
 DV/DL  =         9.0889
 ------------------------------------------------------------------------------

      R M S  F L U C T U A T I O N S

 NSTEP =   500000   TIME(PS) =    1200.000  TEMP(K) =     2.10  PRESS =   134.9
 Etot   =       121.3303  EKtot   =        86.9446  EPtot      =        92.4082
 BOND   =         0.6297  ANGLE   =         0.7518  DIHED      =         0.0681
 1-4 NB =         0.2520  1-4 EEL =         0.0017  VDWAALS    =       126.4919
 EELEC  =       173.8138  EHBOND  =         0.0000  RESTRAINT  =         0.0000
 EKCMT  =        64.8905  VIRIAL  =       612.2710  VOLUME     =        73.4573
                                                    Density    =         0.0003
 DV/DL  =         9.4492
 ------------------------------------------------------------------------------

      A V E R A G E S   O V E R    1000 S T E P S

 NSTEP =   500000   TIME(PS) =    1200.000  TEMP(K) =   300.39  PRESS =   -31.2
 Etot   =    -53782.4718  EKtot   =     12445.9515  EPtot      =    -66228.4233
 BOND   =         0.9480  ANGLE   =         4.4398  DIHED      =         5.2610
 1-4 NB =         0.4693  1-4 EEL =         0.0971  VDWAALS    =      9850.7459
 EELEC  =    -76090.3844  EHBOND  =         0.0000  RESTRAINT  =         0.0000
 EKCMT  =      6245.8788  VIRIAL  =      6388.4560  VOLUME     =    211393.3706
                                                    Density    =         0.9836
 DV/DL  =         9.0889
 ------------------------------------------------------------------------------

      R M S  F L U C T U A T I O N S

 NSTEP =   500000   TIME(PS) =    1200.000  TEMP(K) =     2.10  PRESS =   134.9
 Etot   =       121.3303  EKtot   =        86.9446  EPtot      =        92.4082
 BOND   =         0.6297  ANGLE   =         0.7518  DIHED      =         0.0681
 1-4 NB =         0.2520  1-4 EEL =         0.0017  VDWAALS    =       126.4919
 EELEC  =       173.8138  EHBOND  =         0.0000  RESTRAINT  =         0.0000
 EKCMT  =        64.8905  VIRIAL  =       612.2710  VOLUME     =        73.4573
                                                    Density    =         0.0003
 DV/DL  =         9.4492
 ------------------------------------------------------------------------------

      DV/DL, AVERAGES OVER    1000 STEPS

 NSTEP =   500000   TIME(PS) =    1200.000  TEMP(K) =     2.10  PRESS =     0.0
 Etot   =         0.0000  EKtot   =         0.0000  EPtot      =         9.0889
 BOND   =         0.0000  ANGLE   =         0.0000  DIHED      =         0.0000
 1-4 NB =         0.0000  1-4 EEL =       -10.5279  VDWAALS    =         0.0000
 EELEC  =        19.6168  EHBOND  =         0.0000  RESTRAINT  =         0.0000
 EKCMT  =         0.0000  VIRIAL  =         0.0000  VOLUME     =         0.0000
                                                    Density    =         0.0000
 DV/DL  =         9.0889
 ------------------------------------------------------------------------------

      A V E R A G E S   O V E R  500000 S T E P S

 NSTEP =   500000   TIME(PS) =    1200.000  TEMP(K) =   300.31  PRESS =    -9.0
 Etot   =    -53775.2268  EKtot   =     12442.5892  EPtot      =    -66217.8160
 BOND   =         0.9486  ANGLE   =         5.1729  DIHED      =         5.2795
 1-4 NB =         0.5047  1-4 EEL =         0.0971  VDWAALS    =      9898.3835
 EELEC  =    -76128.2023  EHBOND  =         0.0000  RESTRAINT  =         0.0000
 EKCMT  =      6242.4318  VIRIAL  =      6285.3897  VOLUME     =    211863.0043
                                                    Density    =         0.9815
 DV/DL  =         8.2025
 ------------------------------------------------------------------------------

      R M S  F L U C T U A T I O N S

 NSTEP =   500000   TIME(PS) =    1200.000  TEMP(K) =     2.08  PRESS =   143.8
 Etot   =       174.2398  EKtot   =        86.1933  EPtot      =       147.6765
 BOND   =         0.7704  ANGLE   =         1.2051  DIHED      =         0.0885
 1-4 NB =         0.3011  1-4 EEL =         0.0016  VDWAALS    =       126.5553
 EELEC  =       223.9679  EHBOND  =         0.0000  RESTRAINT  =         0.0000
 EKCMT  =        60.8907  VIRIAL  =       663.9424  VOLUME     =      1463.2101
                                                    Density    =         0.0064
 DV/DL  =         8.6170
 ------------------------------------------------------------------------------

      A V E R A G E S   O V E R  500000 S T E P S

 NSTEP =   500000   TIME(PS) =    1200.000  TEMP(K) =   300.31  PRESS =    -9.0
 Etot   =    -53775.2268  EKtot   =     12442.5892  EPtot      =    -66217.8160
 BOND   =         0.9486  ANGLE   =         5.1729  DIHED      =         5.2795
 1-4 NB =         0.5047  1-4 EEL =         0.0971  VDWAALS    =      9898.3835
 EELEC  =    -76128.2023  EHBOND  =         0.0000  RESTRAINT  =         0.0000
 EKCMT  =      6242.4318  VIRIAL  =      6285.3897  VOLUME     =    211863.0043
                                                    Density    =         0.9815
 DV/DL  =         8.2025
 ------------------------------------------------------------------------------

      R M S  F L U C T U A T I O N S

 NSTEP =   500000   TIME(PS) =    1200.000  TEMP(K) =     2.08  PRESS =   143.8
 Etot   =       174.2398  EKtot   =        86.1933  EPtot      =       147.6765
 BOND   =         0.7704  ANGLE   =         1.2051  DIHED      =         0.0885
 1-4 NB =         0.3011  1-4 EEL =         0.0016  VDWAALS    =       126.5553
 EELEC  =       223.9679  EHBOND  =         0.0000  RESTRAINT  =         0.0000
 EKCMT  =        60.8907  VIRIAL  =       663.9424  VOLUME     =      1463.2101
                                                    Density    =         0.0064
 DV/DL  =         8.6170
 ------------------------------------------------------------------------------

      DV/DL, AVERAGES OVER  500000 STEPS

 NSTEP =   500000   TIME(PS) =    1200.000  TEMP(K) =     2.08  PRESS =     0.0
 Etot   =         0.0000  EKtot   =         0.0000  EPtot      =         8.2025
 BOND   =         0.0000  ANGLE   =         0.0000  DIHED      =         0.0000
 1-4 NB =         0.0000  1-4 EEL =       -10.5337  VDWAALS    =         0.0000
 EELEC  =        18.7363  EHBOND  =         0.0000  RESTRAINT  =         0.0000
 EKCMT  =         0.0000  VIRIAL  =         0.0000  VOLUME     =         0.0000
                                                    Density    =         0.0000
 DV/DL  =         8.2025
 ------------------------------------------------------------------------------
