-------------------------------------------------------
          Amber 18 PMEMD                              2018
          -------------------------------------------------------

  [-O]verwriting output

File Assignments:

 Here is the input file:

 &cntrl
   nstlim=500000, nscm=1000,
   ntx=5, irest=1, ntpr=1000,
   tempi=300.0, temp0=300.0, ntt=3, gamma_ln=2.0,
   ntp=1, pres0=1.01325, taup=5.0,
   ntb=2, igb=0, cut=10.0,
   dt=0.002, ig=-1,
   ntc=2, ntf=2,
   iwrap=0,
   ntwr=1000, ntwx=50000, ntave=1000,
   ioutfm=1, ntwv=-1,
   ifsc = 0, icfe=1,
   clambda=0.04794,
   timask1=':1',
   timask2=':2', crgmask = ':2',
/

Note: ig = -1. Setting random seed to   645784 based on wallclock time in
      microseconds.

--------------------------------------------------------------------------------
   1.  RESOURCE   USE:
--------------------------------------------------------------------------------

 getting box info from netcdf restart file
 NATOM  =      14 NTYPES =       6 NBONH =       6 MBONA  =       6
 NTHETH =      12 MTHETA =       6 NPHIH =      24 MPHIA  =       2
 NHPARM =       0 NPARM  =       0 NNB   =      44 NRES   =       2
 NBONA  =       6 NTHETA =       6 NPHIA =       2 NUMBND =       3
 NUMANG =       4 NPTRA  =       3 NATYP =       6 NPHB   =       1
 IFBOX  =       2 NMXRS  =       7 IFCAP =       0 NEXTRA =       0
 NCOPY  =       0

     BOX TYPE: TRUNCATED OCTAHEDRON

--------------------------------------------------------------------------------
   2.  CONTROL  DATA  FOR  THE  RUN
--------------------------------------------------------------------------------

default_name

General flags:
     imin    =       0, nmropt  =       0

Nature and format of input:
     ntx     =       5, irest   =       1, ntrx    =       1

Nature and format of output:
     ntxo    =       2, ntpr    =    1000, ntrx    =       1, ntwr    =    1000
     iwrap   =       0, ntwx    =   50000, ntwv    =      -1, ntwe    =       0
     ioutfm  =       1, ntwprt  =       0, idecomp =       0, rbornstat=      0

Potential function:
     ntf     =       2, ntb     =       2, igb     =       0, nsnb    =      25
     ipol    =       0, gbsa    =       0, iesp    =       0
     dielc   =   1.00000, cut     =  10.00000, intdiel =   1.00000

Frozen or restrained atoms:
     ibelly  =       0, ntr     =       0

Molecular dynamics:
     nstlim  =    500000, nscm    =      1000, nrespa  =         1
     t       =   0.00000, dt      =   0.00200, vlimit  =  -1.00000

Langevin dynamics temperature regulation:
     ig      =  645784
     temp0   = 300.00000, tempi   = 300.00000, gamma_ln=   2.00000

Pressure regulation:
     ntp     =       1
     pres0   =   1.01325, comp    =  44.60000, taup    =   5.00000

SHAKE:
     ntc     =       2, jfastw  =       0
     tol     =   0.00001

Free energy options:
     icfe    =       1, ifsc    =       0, klambda =       1
     clambda =  0.0479, scalpha =  0.5000, scbeta  = 12.0000
     sceeorder =       2
     dynlmb =  0.0000 logdvdl =       0

Ewald parameters:
     verbose =       0, ew_type =       0, nbflag  =       1, use_pme =       1
     vdwmeth =       1, eedmeth =       1, netfrc  =       1
     Box X =   66.953   Box Y =   66.953   Box Z =   66.953
     Alpha =  109.471   Beta  =  109.471   Gamma =  109.471
     NFFT1 =   64       NFFT2 =   64       NFFT3 =   64
     Cutoff=   10.000   Tol   =0.100E-04
     Ewald Coefficient =  0.27511
     Interpolation order =    4
     TI Mask 1 :1; matches      7 atoms
     TI Mask 2 :2; matches      7 atoms
     TI region 1:       7 atoms
     TI region 2:       7 atoms
Removing charge of      -0.8188 from atom       8
Removing charge of      -0.8188 from atom       9
Removing charge of       0.8054 from atom      10
Removing charge of      -0.1021 from atom      11
Removing charge of      -0.0219 from atom      12
Removing charge of      -0.0219 from atom      13
Removing charge of      -0.0219 from atom      14
Total charge of  -0.99999900 removed from       7 atoms
     Checking for mismatched coordinates.

--------------------------------------------------------------------------------
   3.  ATOMIC COORDINATES AND VELOCITIES
--------------------------------------------------------------------------------

default_name
 begin time read from input coords =   200.000 ps

 Number of triangulated 3-point waters found:        0

     Sum of charges for TI region  1 =  -0.99999900
     Assuming uniform neutralizing plasma

     Sum of charges for TI region  2 =   0.00000000
     Forcing neutrality...

--------------------------------------------------------------------------------
   4.  RESULTS
 NSTEP =     1000   TIME(PS) =     202.000  TEMP(K) =   294.41  PRESS =    -0.1
 Etot   =        20.5549  EKtot   =         5.2655  EPtot      =        15.2894
 BOND   =         1.5238  ANGLE   =         6.3295  DIHED      =         5.2135
 1-4 NB =         0.0334  1-4 EEL =         9.6233  VDWAALS    =        -0.0001
 EELEC  =        -7.4340  EHBOND  =         0.0000  RESTRAINT  =         0.0000
 EKCMT  =         3.0697  VIRIAL  =         3.5373  VOLUME     =    231032.8869
                                                    Density    =         0.0004
 DV/DL  =        -2.2996
 ------------------------------------------------------------------------------

      A V E R A G E S   O V E R    1000 S T E P S

 NSTEP =     1000   TIME(PS) =     202.000  TEMP(K) =   341.44  PRESS =    -0.0
 Etot   =        20.6490  EKtot   =         6.1065  EPtot      =        14.5425
 BOND   =         1.1961  ANGLE   =         5.2031  DIHED      =         5.2609
 1-4 NB =         0.3815  1-4 EEL =         9.9339  VDWAALS    =        -0.0001
 EELEC  =        -7.4329  EHBOND  =         0.0000  RESTRAINT  =         0.0000
 EKCMT  =         3.3414  VIRIAL  =         3.4909  VOLUME     =    231034.9097
                                                    Density    =         0.0004
 DV/DL  =        -2.6270
 ------------------------------------------------------------------------------

      R M S  F L U C T U A T I O N S

 NSTEP =     1000   TIME(PS) =     202.000  TEMP(K) =    88.09  PRESS =     0.3
 Etot   =         1.7091  EKtot   =         1.5755  EPtot      =         1.2716
 BOND   =         0.8279  ANGLE   =         1.0712  DIHED      =         0.0605
 1-4 NB =         0.2450  1-4 EEL =         0.1975  VDWAALS    =         0.0000
 EELEC  =         0.0023  EHBOND  =         0.0000  RESTRAINT  =         0.0000
 EKCMT  =         1.4571  VIRIAL  =         0.0988  VOLUME     =         1.3062
                                                    Density    =         0.0000
 DV/DL  =         0.2075
 ------------------------------------------------------------------------------

      A V E R A G E S   O V E R    1000 S T E P S

 NSTEP =     1000   TIME(PS) =     202.000  TEMP(K) =   341.44  PRESS =    -0.0
 Etot   =        20.6490  EKtot   =         6.1065  EPtot      =        14.5425
 BOND   =         1.1961  ANGLE   =         5.2031  DIHED      =         5.2609
 1-4 NB =         0.3815  1-4 EEL =         9.9339  VDWAALS    =        -0.0001
 EELEC  =        -7.4329  EHBOND  =         0.0000  RESTRAINT  =         0.0000
 EKCMT  =         3.3414  VIRIAL  =         3.4909  VOLUME     =    231034.9097
                                                    Density    =         0.0004
 DV/DL  =        -2.6270
 ------------------------------------------------------------------------------

      R M S  F L U C T U A T I O N S

 NSTEP =     1000   TIME(PS) =     202.000  TEMP(K) =    88.09  PRESS =     0.3
 Etot   =         1.7091  EKtot   =         1.5755  EPtot      =         1.2716
 BOND   =         0.8279  ANGLE   =         1.0712  DIHED      =         0.0605
 1-4 NB =         0.2450  1-4 EEL =         0.1975  VDWAALS    =         0.0000
 EELEC  =         0.0023  EHBOND  =         0.0000  RESTRAINT  =         0.0000
 EKCMT  =         1.4571  VIRIAL  =         0.0988  VOLUME     =         1.3062
                                                    Density    =         0.0000
 DV/DL  =         0.2075
 ------------------------------------------------------------------------------

      DV/DL, AVERAGES OVER    1000 STEPS

 NSTEP =     1000   TIME(PS) =     202.000  TEMP(K) =    88.09  PRESS =     0.0
 Etot   =         0.0000  EKtot   =         0.0000  EPtot      =        -2.6270
 BOND   =         0.0000  ANGLE   =         0.0000  DIHED      =         0.0000
 1-4 NB =         0.0000  1-4 EEL =       -10.4341  VDWAALS    =         0.0000
 EELEC  =         7.8072  EHBOND  =         0.0000  RESTRAINT  =         0.0000
 EKCMT  =         0.0000  VIRIAL  =         0.0000  VOLUME     =         0.0000
                                                    Density    =         0.0000
 DV/DL  =        -2.6270
 ------------------------------------------------------------------------------

      A V E R A G E S   O V E R    1000 S T E P S

 NSTEP =     2000   TIME(PS) =     204.000  TEMP(K) =   253.55  PRESS =    -0.3
 Etot   =        18.5117  EKtot   =         4.5347  EPtot      =        13.9770
 BOND   =         0.7471  ANGLE   =         5.0543  DIHED      =         5.2926
 1-4 NB =         0.3733  1-4 EEL =         9.9438  VDWAALS    =        -0.0001
 EELEC  =        -7.4341  EHBOND  =         0.0000  RESTRAINT  =         0.0000
 EKCMT  =         1.7962  VIRIAL  =         3.5211  VOLUME     =    231030.1175
                                                    Density    =         0.0004
 DV/DL  =        -2.6360
 ------------------------------------------------------------------------------

      R M S  F L U C T U A T I O N S

 NSTEP =     2000   TIME(PS) =     204.000  TEMP(K) =    68.76  PRESS =     0.2
 Etot   =         1.1485  EKtot   =         1.2298  EPtot      =         1.0189
 BOND   =         0.5387  ANGLE   =         0.8982  DIHED      =         0.0933
 1-4 NB =         0.2133  1-4 EEL =         0.1458  VDWAALS    =         0.0000
 EELEC  =         0.0026  EHBOND  =         0.0000  RESTRAINT  =         0.0000
 EKCMT  =         1.0952  VIRIAL  =         0.0926  VOLUME     =         1.5693
                                                    Density    =         0.0000
 DV/DL  =         0.1533
 ------------------------------------------------------------------------------

      A V E R A G E S   O V E R    1000 S T E P S

 NSTEP =     2000   TIME(PS) =     204.000  TEMP(K) =   253.55  PRESS =    -0.3
 Etot   =        18.5117  EKtot   =         4.5347  EPtot      =        13.9770
 BOND   =         0.7471  ANGLE   =         5.0543  DIHED      =         5.2926
 1-4 NB =         0.3733  1-4 EEL =         9.9438  VDWAALS    =        -0.0001
 EELEC  =        -7.4341  EHBOND  =         0.0000  RESTRAINT  =         0.0000
 EKCMT  =         1.7962  VIRIAL  =         3.5211  VOLUME     =    231030.1175
                                                    Density    =         0.0004
 DV/DL  =        -2.6360
 ------------------------------------------------------------------------------

      R M S  F L U C T U A T I O N S

 NSTEP =     2000   TIME(PS) =     204.000  TEMP(K) =    68.76  PRESS =     0.2
 Etot   =         1.1485  EKtot   =         1.2298  EPtot      =         1.0189
 BOND   =         0.5387  ANGLE   =         0.8982  DIHED      =         0.0933
 1-4 NB =         0.2133  1-4 EEL =         0.1458  VDWAALS    =         0.0000
 EELEC  =         0.0026  EHBOND  =         0.0000  RESTRAINT  =         0.0000
 EKCMT  =         1.0952  VIRIAL  =         0.0926  VOLUME     =         1.5693
                                                    Density    =         0.0000
 DV/DL  =         0.1533
 ------------------------------------------------------------------------------

      DV/DL, AVERAGES OVER    1000 STEPS

 NSTEP =     2000   TIME(PS) =     204.000  TEMP(K) =    68.76  PRESS =     0.0
 Etot   =         0.0000  EKtot   =         0.0000  EPtot      =        -2.6360
 BOND   =         0.0000  ANGLE   =         0.0000  DIHED      =         0.0000
 1-4 NB =         0.0000  1-4 EEL =       -10.4445  VDWAALS    =         0.0000
 EELEC  =         7.8085  EHBOND  =         0.0000  RESTRAINT  =         0.0000
 EKCMT  =         0.0000  VIRIAL  =         0.0000  VOLUME     =         0.0000
                                                    Density    =         0.0000
 DV/DL  =        -2.6360
 ------------------------------------------------------------------------------

      A V E R A G E S   O V E R    1000 S T E P S

 NSTEP =   500000   TIME(PS) =    1200.000  TEMP(K) =   258.23  PRESS =    -0.4
 Etot   =        18.7854  EKtot   =         4.6184  EPtot      =        14.1670
 BOND   =         0.9545  ANGLE   =         5.1569  DIHED      =         5.2471
 1-4 NB =         0.3409  1-4 EEL =         9.9316  VDWAALS    =        -0.0001
 EELEC  =        -7.4640  EHBOND  =         0.0000  RESTRAINT  =         0.0000
 EKCMT  =         1.4429  VIRIAL  =         3.5374  VOLUME     =    228258.8528
                                                    Density    =         0.0004
 DV/DL  =        -2.5919
 ------------------------------------------------------------------------------

      R M S  F L U C T U A T I O N S

 NSTEP =   500000   TIME(PS) =    1200.000  TEMP(K) =    81.37  PRESS =     0.2
 Etot   =         2.1190  EKtot   =         1.4552  EPtot      =         1.3828
 BOND   =         0.7967  ANGLE   =         1.0168  DIHED      =         0.0421
 1-4 NB =         0.1578  1-4 EEL =         0.1097  VDWAALS    =         0.0000
 EELEC  =         0.0024  EHBOND  =         0.0000  RESTRAINT  =         0.0000
 EKCMT  =         1.0163  VIRIAL  =         0.0876  VOLUME     =         1.6993
                                                    Density    =         0.0000
 DV/DL  =         0.1152
 ------------------------------------------------------------------------------

      A V E R A G E S   O V E R    1000 S T E P S

 NSTEP =   500000   TIME(PS) =    1200.000  TEMP(K) =   258.23  PRESS =    -0.4
 Etot   =        18.7854  EKtot   =         4.6184  EPtot      =        14.1670
 BOND   =         0.9545  ANGLE   =         5.1569  DIHED      =         5.2471
 1-4 NB =         0.3409  1-4 EEL =         9.9316  VDWAALS    =        -0.0001
 EELEC  =        -7.4640  EHBOND  =         0.0000  RESTRAINT  =         0.0000
 EKCMT  =         1.4429  VIRIAL  =         3.5374  VOLUME     =    228258.8528
                                                    Density    =         0.0004
 DV/DL  =        -2.5919
 ------------------------------------------------------------------------------

      R M S  F L U C T U A T I O N S

 NSTEP =   500000   TIME(PS) =    1200.000  TEMP(K) =    81.37  PRESS =     0.2
 Etot   =         2.1190  EKtot   =         1.4552  EPtot      =         1.3828
 BOND   =         0.7967  ANGLE   =         1.0168  DIHED      =         0.0421
 1-4 NB =         0.1578  1-4 EEL =         0.1097  VDWAALS    =         0.0000
 EELEC  =         0.0024  EHBOND  =         0.0000  RESTRAINT  =         0.0000
 EKCMT  =         1.0163  VIRIAL  =         0.0876  VOLUME     =         1.6993
                                                    Density    =         0.0000
 DV/DL  =         0.1152
 ------------------------------------------------------------------------------

      DV/DL, AVERAGES OVER    1000 STEPS

 NSTEP =   500000   TIME(PS) =    1200.000  TEMP(K) =    81.37  PRESS =     0.0
 Etot   =         0.0000  EKtot   =         0.0000  EPtot      =        -2.5919
 BOND   =         0.0000  ANGLE   =         0.0000  DIHED      =         0.0000
 1-4 NB =         0.0000  1-4 EEL =       -10.4317  VDWAALS    =         0.0000
 EELEC  =         7.8399  EHBOND  =         0.0000  RESTRAINT  =         0.0000
 EKCMT  =         0.0000  VIRIAL  =         0.0000  VOLUME     =         0.0000
                                                    Density    =         0.0000
 DV/DL  =        -2.5919
 ------------------------------------------------------------------------------

      A V E R A G E S   O V E R  500000 S T E P S

 NSTEP =   500000   TIME(PS) =    1200.000  TEMP(K) =   301.02  PRESS =    -0.3
 Etot   =        19.6551  EKtot   =         5.3837  EPtot      =        14.2715
 BOND   =         0.9951  ANGLE   =         5.1513  DIHED      =         5.2783
 1-4 NB =         0.3582  1-4 EEL =         9.9370  VDWAALS    =        -0.0001
 EELEC  =        -7.4482  EHBOND  =         0.0000  RESTRAINT  =         0.0000
 EKCMT  =         1.8429  VIRIAL  =         3.5510  VOLUME     =    229645.2685
                                                    Density    =         0.0004
 DV/DL  =        -2.6141
 ------------------------------------------------------------------------------

      R M S  F L U C T U A T I O N S

 NSTEP =   500000   TIME(PS) =    1200.000  TEMP(K) =    99.96  PRESS =     0.3
 Etot   =         2.2929  EKtot   =         1.7877  EPtot      =         1.4575
 BOND   =         0.8080  ANGLE   =         1.1970  DIHED      =         0.0870
 1-4 NB =         0.2055  1-4 EEL =         0.1548  VDWAALS    =         0.0000
 EELEC  =         0.0091  EHBOND  =         0.0000  RESTRAINT  =         0.0000
 EKCMT  =         1.4912  VIRIAL  =         0.1358  VOLUME     =       801.8965
                                                    Density    =         0.0000
 DV/DL  =         0.1628
 ------------------------------------------------------------------------------

      A V E R A G E S   O V E R  500000 S T E P S

 NSTEP =   500000   TIME(PS) =    1200.000  TEMP(K) =   301.02  PRESS =    -0.3
 Etot   =        19.6551  EKtot   =         5.3837  EPtot      =        14.2715
 BOND   =         0.9951  ANGLE   =         5.1513  DIHED      =         5.2783
 1-4 NB =         0.3582  1-4 EEL =         9.9370  VDWAALS    =        -0.0001
 EELEC  =        -7.4482  EHBOND  =         0.0000  RESTRAINT  =         0.0000
 EKCMT  =         1.8429  VIRIAL  =         3.5510  VOLUME     =    229645.2685
                                                    Density    =         0.0004
 DV/DL  =        -2.6141
 ------------------------------------------------------------------------------

      R M S  F L U C T U A T I O N S

 NSTEP =   500000   TIME(PS) =    1200.000  TEMP(K) =    99.96  PRESS =     0.3
 Etot   =         2.2929  EKtot   =         1.7877  EPtot      =         1.4575
 BOND   =         0.8080  ANGLE   =         1.1970  DIHED      =         0.0870
 1-4 NB =         0.2055  1-4 EEL =         0.1548  VDWAALS    =         0.0000
 EELEC  =         0.0091  EHBOND  =         0.0000  RESTRAINT  =         0.0000
 EKCMT  =         1.4912  VIRIAL  =         0.1358  VOLUME     =       801.8965
                                                    Density    =         0.0000
 DV/DL  =         0.1628
 ------------------------------------------------------------------------------

      DV/DL, AVERAGES OVER  500000 STEPS

 NSTEP =   500000   TIME(PS) =    1200.000  TEMP(K) =    99.96  PRESS =     0.0
 Etot   =         0.0000  EKtot   =         0.0000  EPtot      =        -2.6141
 BOND   =         0.0000  ANGLE   =         0.0000  DIHED      =         0.0000
 1-4 NB =         0.0000  1-4 EEL =       -10.4373  VDWAALS    =         0.0000
 EELEC  =         7.8233  EHBOND  =         0.0000  RESTRAINT  =         0.0000
 EKCMT  =         0.0000  VIRIAL  =         0.0000  VOLUME     =         0.0000
                                                    Density    =         0.0000
 DV/DL  =        -2.6141
 ------------------------------------------------------------------------------
