-------------------------------------------------------
          Amber 18 PMEMD                              2018
          -------------------------------------------------------

  [-O]verwriting output

File Assignments:

 Here is the input file:

 &cntrl
   nstlim=500000, nscm=1000,
   ntx=5, irest=1, ntpr=1000,
   tempi=300.0, temp0=300.0, ntt=3, gamma_ln=2.0,
   ntp=1, pres0=1.01325, taup=5.0,
   ntb=2, igb=0, cut=10.0,
   dt=0.002, ig=-1,
   ntc=2, ntf=2,
   iwrap=0,
   ntwr=1000, ntwx=50000, ntave=1000,
   ioutfm=1, ntwv=-1,
   ifsc = 0, icfe=1,
   clambda=0.11505,
   timask1=':1',
   timask2=':2', crgmask = ':2',
/

Note: ig = -1. Setting random seed to   220636 based on wallclock time in
      microseconds.

--------------------------------------------------------------------------------
   1.  RESOURCE   USE:
--------------------------------------------------------------------------------

 getting box info from netcdf restart file
 NATOM  =      14 NTYPES =       6 NBONH =       6 MBONA  =       6
 NTHETH =      12 MTHETA =       6 NPHIH =      24 MPHIA  =       2
 NHPARM =       0 NPARM  =       0 NNB   =      44 NRES   =       2
 NBONA  =       6 NTHETA =       6 NPHIA =       2 NUMBND =       3
 NUMANG =       4 NPTRA  =       3 NATYP =       6 NPHB   =       1
 IFBOX  =       2 NMXRS  =       7 IFCAP =       0 NEXTRA =       0
 NCOPY  =       0

     BOX TYPE: TRUNCATED OCTAHEDRON

--------------------------------------------------------------------------------
   2.  CONTROL  DATA  FOR  THE  RUN
--------------------------------------------------------------------------------

default_name

General flags:
     imin    =       0, nmropt  =       0

Nature and format of input:
     ntx     =       5, irest   =       1, ntrx    =       1

Nature and format of output:
     ntxo    =       2, ntpr    =    1000, ntrx    =       1, ntwr    =    1000
     iwrap   =       0, ntwx    =   50000, ntwv    =      -1, ntwe    =       0
     ioutfm  =       1, ntwprt  =       0, idecomp =       0, rbornstat=      0

Potential function:
     ntf     =       2, ntb     =       2, igb     =       0, nsnb    =      25
     ipol    =       0, gbsa    =       0, iesp    =       0
     dielc   =   1.00000, cut     =  10.00000, intdiel =   1.00000

Frozen or restrained atoms:
     ibelly  =       0, ntr     =       0

Molecular dynamics:
     nstlim  =    500000, nscm    =      1000, nrespa  =         1
     t       =   0.00000, dt      =   0.00200, vlimit  =  -1.00000

Langevin dynamics temperature regulation:
     ig      =  220636
     temp0   = 300.00000, tempi   = 300.00000, gamma_ln=   2.00000

Pressure regulation:
     ntp     =       1
     pres0   =   1.01325, comp    =  44.60000, taup    =   5.00000

SHAKE:
     ntc     =       2, jfastw  =       0
     tol     =   0.00001

Free energy options:
     icfe    =       1, ifsc    =       0, klambda =       1
     clambda =  0.1150, scalpha =  0.5000, scbeta  = 12.0000
     sceeorder =       2
     dynlmb =  0.0000 logdvdl =       0

Ewald parameters:
     verbose =       0, ew_type =       0, nbflag  =       1, use_pme =       1
     vdwmeth =       1, eedmeth =       1, netfrc  =       1
     Box X =   66.953   Box Y =   66.953   Box Z =   66.953
     Alpha =  109.471   Beta  =  109.471   Gamma =  109.471
     NFFT1 =   64       NFFT2 =   64       NFFT3 =   64
     Cutoff=   10.000   Tol   =0.100E-04
     Ewald Coefficient =  0.27511
     Interpolation order =    4
     TI Mask 1 :1; matches      7 atoms
     TI Mask 2 :2; matches      7 atoms
     TI region 1:       7 atoms
     TI region 2:       7 atoms
Removing charge of      -0.8188 from atom       8
Removing charge of      -0.8188 from atom       9
Removing charge of       0.8054 from atom      10
Removing charge of      -0.1021 from atom      11
Removing charge of      -0.0219 from atom      12
Removing charge of      -0.0219 from atom      13
Removing charge of      -0.0219 from atom      14
Total charge of  -0.99999900 removed from       7 atoms
     Checking for mismatched coordinates.

--------------------------------------------------------------------------------
   3.  ATOMIC COORDINATES AND VELOCITIES
--------------------------------------------------------------------------------

default_name
 begin time read from input coords =   200.000 ps

 Number of triangulated 3-point waters found:        0

     Sum of charges for TI region  1 =  -0.99999900
     Assuming uniform neutralizing plasma

     Sum of charges for TI region  2 =   0.00000000
     Forcing neutrality...

--------------------------------------------------------------------------------
   4.  RESULTS
 NSTEP =     1000   TIME(PS) =     202.000  TEMP(K) =   328.20  PRESS =    -0.3
 Etot   =        19.6464  EKtot   =         5.8697  EPtot      =        13.7767
 BOND   =         0.0101  ANGLE   =         5.6259  DIHED      =         5.2446
 1-4 NB =         0.4235  1-4 EEL =         9.3811  VDWAALS    =        -0.0001
 EELEC  =        -6.9084  EHBOND  =         0.0000  RESTRAINT  =         0.0000
 EKCMT  =         1.0574  VIRIAL  =         2.7816  VOLUME     =    231031.3193
                                                    Density    =         0.0004
 DV/DL  =        -2.7941
 ------------------------------------------------------------------------------

      A V E R A G E S   O V E R    1000 S T E P S

 NSTEP =     1000   TIME(PS) =     202.000  TEMP(K) =   325.92  PRESS =    -0.4
 Etot   =        20.0283  EKtot   =         5.8290  EPtot      =        14.1994
 BOND   =         1.1094  ANGLE   =         5.1240  DIHED      =         5.2693
 1-4 NB =         0.3665  1-4 EEL =         9.2385  VDWAALS    =        -0.0001
 EELEC  =        -6.9084  EHBOND  =         0.0000  RESTRAINT  =         0.0000
 EKCMT  =         0.9696  VIRIAL  =         3.0176  VOLUME     =    231034.2622
                                                    Density    =         0.0004
 DV/DL  =        -2.6331
 ------------------------------------------------------------------------------

      R M S  F L U C T U A T I O N S

 NSTEP =     1000   TIME(PS) =     202.000  TEMP(K) =   104.54  PRESS =     0.2
 Etot   =         2.2985  EKtot   =         1.8697  EPtot      =         1.2667
 BOND   =         0.7468  ANGLE   =         1.0582  DIHED      =         0.0786
 1-4 NB =         0.1989  1-4 EEL =         0.1255  VDWAALS    =         0.0000
 EELEC  =         0.0028  EHBOND  =         0.0000  RESTRAINT  =         0.0000
 EKCMT  =         0.7534  VIRIAL  =         0.3056  VOLUME     =         1.7053
                                                    Density    =         0.0000
 DV/DL  =         0.1417
 ------------------------------------------------------------------------------

      A V E R A G E S   O V E R    1000 S T E P S

 NSTEP =     1000   TIME(PS) =     202.000  TEMP(K) =   325.92  PRESS =    -0.4
 Etot   =        20.0283  EKtot   =         5.8290  EPtot      =        14.1994
 BOND   =         1.1094  ANGLE   =         5.1240  DIHED      =         5.2693
 1-4 NB =         0.3665  1-4 EEL =         9.2385  VDWAALS    =        -0.0001
 EELEC  =        -6.9084  EHBOND  =         0.0000  RESTRAINT  =         0.0000
 EKCMT  =         0.9696  VIRIAL  =         3.0176  VOLUME     =    231034.2622
                                                    Density    =         0.0004
 DV/DL  =        -2.6331
 ------------------------------------------------------------------------------

      R M S  F L U C T U A T I O N S

 NSTEP =     1000   TIME(PS) =     202.000  TEMP(K) =   104.54  PRESS =     0.2
 Etot   =         2.2985  EKtot   =         1.8697  EPtot      =         1.2667
 BOND   =         0.7468  ANGLE   =         1.0582  DIHED      =         0.0786
 1-4 NB =         0.1989  1-4 EEL =         0.1255  VDWAALS    =         0.0000
 EELEC  =         0.0028  EHBOND  =         0.0000  RESTRAINT  =         0.0000
 EKCMT  =         0.7534  VIRIAL  =         0.3056  VOLUME     =         1.7053
                                                    Density    =         0.0000
 DV/DL  =         0.1417
 ------------------------------------------------------------------------------

      DV/DL, AVERAGES OVER    1000 STEPS

 NSTEP =     1000   TIME(PS) =     202.000  TEMP(K) =   104.54  PRESS =     0.0
 Etot   =         0.0000  EKtot   =         0.0000  EPtot      =        -2.6331
 BOND   =         0.0000  ANGLE   =         0.0000  DIHED      =         0.0000
 1-4 NB =         0.0000  1-4 EEL =       -10.4396  VDWAALS    =         0.0000
 EELEC  =         7.8065  EHBOND  =         0.0000  RESTRAINT  =         0.0000
 EKCMT  =         0.0000  VIRIAL  =         0.0000  VOLUME     =         0.0000
                                                    Density    =         0.0000
 DV/DL  =        -2.6331
 ------------------------------------------------------------------------------

      A V E R A G E S   O V E R    1000 S T E P S

 NSTEP =     2000   TIME(PS) =     204.000  TEMP(K) =   345.89  PRESS =    -0.2
 Etot   =        21.0521  EKtot   =         6.1862  EPtot      =        14.8658
 BOND   =         1.2225  ANGLE   =         5.6986  DIHED      =         5.2575
 1-4 NB =         0.3617  1-4 EEL =         9.2355  VDWAALS    =        -0.0001
 EELEC  =        -6.9098  EHBOND  =         0.0000  RESTRAINT  =         0.0000
 EKCMT  =         1.8547  VIRIAL  =         2.8186  VOLUME     =    231028.9246
                                                    Density    =         0.0004
 DV/DL  =        -2.6281
 ------------------------------------------------------------------------------

      R M S  F L U C T U A T I O N S

 NSTEP =     2000   TIME(PS) =     204.000  TEMP(K) =   114.16  PRESS =     0.3
 Etot   =         2.4368  EKtot   =         2.0417  EPtot      =         1.5225
 BOND   =         0.9207  ANGLE   =         1.3540  DIHED      =         0.0468
 1-4 NB =         0.2313  1-4 EEL =         0.1776  VDWAALS    =         0.0000
 EELEC  =         0.0028  EHBOND  =         0.0000  RESTRAINT  =         0.0000
 EKCMT  =         1.3949  VIRIAL  =         0.2350  VOLUME     =         1.4067
                                                    Density    =         0.0000
 DV/DL  =         0.2006
 ------------------------------------------------------------------------------

      A V E R A G E S   O V E R    1000 S T E P S

 NSTEP =     2000   TIME(PS) =     204.000  TEMP(K) =   345.89  PRESS =    -0.2
 Etot   =        21.0521  EKtot   =         6.1862  EPtot      =        14.8658
 BOND   =         1.2225  ANGLE   =         5.6986  DIHED      =         5.2575
 1-4 NB =         0.3617  1-4 EEL =         9.2355  VDWAALS    =        -0.0001
 EELEC  =        -6.9098  EHBOND  =         0.0000  RESTRAINT  =         0.0000
 EKCMT  =         1.8547  VIRIAL  =         2.8186  VOLUME     =    231028.9246
                                                    Density    =         0.0004
 DV/DL  =        -2.6281
 ------------------------------------------------------------------------------

      R M S  F L U C T U A T I O N S

 NSTEP =     2000   TIME(PS) =     204.000  TEMP(K) =   114.16  PRESS =     0.3
 Etot   =         2.4368  EKtot   =         2.0417  EPtot      =         1.5225
 BOND   =         0.9207  ANGLE   =         1.3540  DIHED      =         0.0468
 1-4 NB =         0.2313  1-4 EEL =         0.1776  VDWAALS    =         0.0000
 EELEC  =         0.0028  EHBOND  =         0.0000  RESTRAINT  =         0.0000
 EKCMT  =         1.3949  VIRIAL  =         0.2350  VOLUME     =         1.4067
                                                    Density    =         0.0000
 DV/DL  =         0.2006
 ------------------------------------------------------------------------------

      DV/DL, AVERAGES OVER    1000 STEPS

 NSTEP =     2000   TIME(PS) =     204.000  TEMP(K) =   114.16  PRESS =     0.0
 Etot   =         0.0000  EKtot   =         0.0000  EPtot      =        -2.6281
 BOND   =         0.0000  ANGLE   =         0.0000  DIHED      =         0.0000
 1-4 NB =         0.0000  1-4 EEL =       -10.4361  VDWAALS    =         0.0000
 EELEC  =         7.8081  EHBOND  =         0.0000  RESTRAINT  =         0.0000
 EKCMT  =         0.0000  VIRIAL  =         0.0000  VOLUME     =         0.0000
                                                    Density    =         0.0000
 DV/DL  =        -2.6281
 ------------------------------------------------------------------------------

      A V E R A G E S   O V E R    1000 S T E P S

 NSTEP =   500000   TIME(PS) =    1200.000  TEMP(K) =   288.18  PRESS =    -0.4
 Etot   =        19.6600  EKtot   =         5.1540  EPtot      =        14.5060
 BOND   =         1.3804  ANGLE   =         5.2012  DIHED      =         5.2640
 1-4 NB =         0.3546  1-4 EEL =         9.2404  VDWAALS    =        -0.0001
 EELEC  =        -6.9346  EHBOND  =         0.0000  RESTRAINT  =         0.0000
 EKCMT  =         1.0294  VIRIAL  =         3.1744  VOLUME     =    228428.5094
                                                    Density    =         0.0004
 DV/DL  =        -2.6056
 ------------------------------------------------------------------------------

      R M S  F L U C T U A T I O N S

 NSTEP =   500000   TIME(PS) =    1200.000  TEMP(K) =    75.19  PRESS =     0.2
 Etot   =         1.6879  EKtot   =         1.3447  EPtot      =         1.3950
 BOND   =         0.9016  ANGLE   =         1.1860  DIHED      =         0.0635
 1-4 NB =         0.1999  1-4 EEL =         0.1697  VDWAALS    =         0.0000
 EELEC  =         0.0025  EHBOND  =         0.0000  RESTRAINT  =         0.0000
 EKCMT  =         0.7813  VIRIAL  =         0.3548  VOLUME     =         1.7459
                                                    Density    =         0.0000
 DV/DL  =         0.1916
 ------------------------------------------------------------------------------

      A V E R A G E S   O V E R    1000 S T E P S

 NSTEP =   500000   TIME(PS) =    1200.000  TEMP(K) =   288.18  PRESS =    -0.4
 Etot   =        19.6600  EKtot   =         5.1540  EPtot      =        14.5060
 BOND   =         1.3804  ANGLE   =         5.2012  DIHED      =         5.2640
 1-4 NB =         0.3546  1-4 EEL =         9.2404  VDWAALS    =        -0.0001
 EELEC  =        -6.9346  EHBOND  =         0.0000  RESTRAINT  =         0.0000
 EKCMT  =         1.0294  VIRIAL  =         3.1744  VOLUME     =    228428.5094
                                                    Density    =         0.0004
 DV/DL  =        -2.6056
 ------------------------------------------------------------------------------

      R M S  F L U C T U A T I O N S

 NSTEP =   500000   TIME(PS) =    1200.000  TEMP(K) =    75.19  PRESS =     0.2
 Etot   =         1.6879  EKtot   =         1.3447  EPtot      =         1.3950
 BOND   =         0.9016  ANGLE   =         1.1860  DIHED      =         0.0635
 1-4 NB =         0.1999  1-4 EEL =         0.1697  VDWAALS    =         0.0000
 EELEC  =         0.0025  EHBOND  =         0.0000  RESTRAINT  =         0.0000
 EKCMT  =         0.7813  VIRIAL  =         0.3548  VOLUME     =         1.7459
                                                    Density    =         0.0000
 DV/DL  =         0.1916
 ------------------------------------------------------------------------------

      DV/DL, AVERAGES OVER    1000 STEPS

 NSTEP =   500000   TIME(PS) =    1200.000  TEMP(K) =    75.19  PRESS =     0.0
 Etot   =         0.0000  EKtot   =         0.0000  EPtot      =        -2.6056
 BOND   =         0.0000  ANGLE   =         0.0000  DIHED      =         0.0000
 1-4 NB =         0.0000  1-4 EEL =       -10.4417  VDWAALS    =         0.0000
 EELEC  =         7.8362  EHBOND  =         0.0000  RESTRAINT  =         0.0000
 EKCMT  =         0.0000  VIRIAL  =         0.0000  VOLUME     =         0.0000
                                                    Density    =         0.0000
 DV/DL  =        -2.6056
 ------------------------------------------------------------------------------

      A V E R A G E S   O V E R  500000 S T E P S

 NSTEP =   500000   TIME(PS) =    1200.000  TEMP(K) =   299.70  PRESS =    -0.3
 Etot   =        19.4818  EKtot   =         5.3600  EPtot      =        14.1218
 BOND   =         1.0024  ANGLE   =         5.1569  DIHED      =         5.2775
 1-4 NB =         0.3660  1-4 EEL =         9.2414  VDWAALS    =        -0.0001
 EELEC  =        -6.9224  EHBOND  =         0.0000  RESTRAINT  =         0.0000
 EKCMT  =         1.7611  VIRIAL  =         3.0570  VOLUME     =    229726.7843
                                                    Density    =         0.0004
 DV/DL  =        -2.6205
 ------------------------------------------------------------------------------

      R M S  F L U C T U A T I O N S

 NSTEP =   500000   TIME(PS) =    1200.000  TEMP(K) =   100.07  PRESS =     0.3
 Etot   =         2.3248  EKtot   =         1.7898  EPtot      =         1.4817
 BOND   =         0.8177  ANGLE   =         1.2042  DIHED      =         0.0855
 1-4 NB =         0.2105  1-4 EEL =         0.1442  VDWAALS    =         0.0000
 EELEC  =         0.0079  EHBOND  =         0.0000  RESTRAINT  =         0.0000
 EKCMT  =         1.4348  VIRIAL  =         0.3295  VOLUME     =       752.8522
                                                    Density    =         0.0000
 DV/DL  =         0.1631
 ------------------------------------------------------------------------------

      A V E R A G E S   O V E R  500000 S T E P S

 NSTEP =   500000   TIME(PS) =    1200.000  TEMP(K) =   299.70  PRESS =    -0.3
 Etot   =        19.4818  EKtot   =         5.3600  EPtot      =        14.1218
 BOND   =         1.0024  ANGLE   =         5.1569  DIHED      =         5.2775
 1-4 NB =         0.3660  1-4 EEL =         9.2414  VDWAALS    =        -0.0001
 EELEC  =        -6.9224  EHBOND  =         0.0000  RESTRAINT  =         0.0000
 EKCMT  =         1.7611  VIRIAL  =         3.0570  VOLUME     =    229726.7843
                                                    Density    =         0.0004
 DV/DL  =        -2.6205
 ------------------------------------------------------------------------------

      R M S  F L U C T U A T I O N S

 NSTEP =   500000   TIME(PS) =    1200.000  TEMP(K) =   100.07  PRESS =     0.3
 Etot   =         2.3248  EKtot   =         1.7898  EPtot      =         1.4817
 BOND   =         0.8177  ANGLE   =         1.2042  DIHED      =         0.0855
 1-4 NB =         0.2105  1-4 EEL =         0.1442  VDWAALS    =         0.0000
 EELEC  =         0.0079  EHBOND  =         0.0000  RESTRAINT  =         0.0000
 EKCMT  =         1.4348  VIRIAL  =         0.3295  VOLUME     =       752.8522
                                                    Density    =         0.0000
 DV/DL  =         0.1631
 ------------------------------------------------------------------------------

      DV/DL, AVERAGES OVER  500000 STEPS

 NSTEP =   500000   TIME(PS) =    1200.000  TEMP(K) =   100.07  PRESS =     0.0
 Etot   =         0.0000  EKtot   =         0.0000  EPtot      =        -2.6205
 BOND   =         0.0000  ANGLE   =         0.0000  DIHED      =         0.0000
 1-4 NB =         0.0000  1-4 EEL =       -10.4429  VDWAALS    =         0.0000
 EELEC  =         7.8224  EHBOND  =         0.0000  RESTRAINT  =         0.0000
 EKCMT  =         0.0000  VIRIAL  =         0.0000  VOLUME     =         0.0000
                                                    Density    =         0.0000
 DV/DL  =        -2.6205
 ------------------------------------------------------------------------------
