-------------------------------------------------------
          Amber 18 PMEMD                              2018
          -------------------------------------------------------

  [-O]verwriting output

File Assignments:

 Here is the input file:

 &cntrl
   nstlim=500000, nscm=1000,
   ntx=5, irest=1, ntpr=1000,
   tempi=300.0, temp0=300.0, ntt=3, gamma_ln=2.0,
   ntp=1, pres0=1.01325, taup=5.0,
   ntb=2, igb=0, cut=10.0,
   dt=0.002, ig=-1,
   ntc=2, ntf=2,
   iwrap=0,
   ntwr=1000, ntwx=50000, ntave=1000,
   ioutfm=1, ntwv=-1,
   ifsc = 0, icfe=1,
   clambda=0.79366,
   timask1=':1',
   timask2=':2', crgmask = ':2',
/

Note: ig = -1. Setting random seed to   563038 based on wallclock time in
      microseconds.

--------------------------------------------------------------------------------
   1.  RESOURCE   USE:
--------------------------------------------------------------------------------

 getting box info from netcdf restart file
 NATOM  =   20855 NTYPES =       6 NBONH =   20847 MBONA  =       6
 NTHETH =      12 MTHETA =       6 NPHIH =      24 MPHIA  =       2
 NHPARM =       0 NPARM  =       0 NNB   =   27832 NRES   =    6949
 NBONA  =       6 NTHETA =       6 NPHIA =       2 NUMBND =       5
 NUMANG =       4 NPTRA  =       3 NATYP =       6 NPHB   =       1
 IFBOX  =       2 NMXRS  =       7 IFCAP =       0 NEXTRA =       0
 NCOPY  =       0

     BOX TYPE: TRUNCATED OCTAHEDRON

--------------------------------------------------------------------------------
   2.  CONTROL  DATA  FOR  THE  RUN
--------------------------------------------------------------------------------

default_name

General flags:
     imin    =       0, nmropt  =       0

Nature and format of input:
     ntx     =       5, irest   =       1, ntrx    =       1

Nature and format of output:
     ntxo    =       2, ntpr    =    1000, ntrx    =       1, ntwr    =    1000
     iwrap   =       0, ntwx    =   50000, ntwv    =      -1, ntwe    =       0
     ioutfm  =       1, ntwprt  =       0, idecomp =       0, rbornstat=      0

Potential function:
     ntf     =       2, ntb     =       2, igb     =       0, nsnb    =      25
     ipol    =       0, gbsa    =       0, iesp    =       0
     dielc   =   1.00000, cut     =  10.00000, intdiel =   1.00000

Frozen or restrained atoms:
     ibelly  =       0, ntr     =       0

Molecular dynamics:
     nstlim  =    500000, nscm    =      1000, nrespa  =         1
     t       =   0.00000, dt      =   0.00200, vlimit  =  -1.00000

Langevin dynamics temperature regulation:
     ig      =  563038
     temp0   = 300.00000, tempi   = 300.00000, gamma_ln=   2.00000

Pressure regulation:
     ntp     =       1
     pres0   =   1.01325, comp    =  44.60000, taup    =   5.00000

SHAKE:
     ntc     =       2, jfastw  =       0
     tol     =   0.00001

Free energy options:
     icfe    =       1, ifsc    =       0, klambda =       1
     clambda =  0.7937, scalpha =  0.5000, scbeta  = 12.0000
     sceeorder =       2
     dynlmb =  0.0000 logdvdl =       0

Ewald parameters:
     verbose =       0, ew_type =       0, nbflag  =       1, use_pme =       1
     vdwmeth =       1, eedmeth =       1, netfrc  =       1
     Box X =   66.953   Box Y =   66.953   Box Z =   66.953
     Alpha =  109.471   Beta  =  109.471   Gamma =  109.471
     NFFT1 =   64       NFFT2 =   64       NFFT3 =   64
     Cutoff=   10.000   Tol   =0.100E-04
     Ewald Coefficient =  0.27511
     Interpolation order =    4
     TI Mask 1 :1; matches      7 atoms
     TI Mask 2 :2; matches      7 atoms
     TI region 1:   20848 atoms
     TI region 2:   20848 atoms
Removing charge of      -0.8188 from atom       8
Removing charge of      -0.8188 from atom       9
Removing charge of       0.8054 from atom      10
Removing charge of      -0.1021 from atom      11
Removing charge of      -0.0219 from atom      12
Removing charge of      -0.0219 from atom      13
Removing charge of      -0.0219 from atom      14
Total charge of  -0.99999900 removed from       7 atoms
     Checking for mismatched coordinates.

--------------------------------------------------------------------------------
   3.  ATOMIC COORDINATES AND VELOCITIES
--------------------------------------------------------------------------------

default_name
 begin time read from input coords =   200.000 ps

 Number of triangulated 3-point waters found:     6947

     Sum of charges for TI region  1 =  -0.99999900
     Assuming uniform neutralizing plasma

     Sum of charges for TI region  2 =   0.00000000
     Forcing neutrality...

--------------------------------------------------------------------------------
   4.  RESULTS
 NSTEP =     1000   TIME(PS) =     202.000  TEMP(K) =   300.74  PRESS =  -643.1
 Etot   =    -52771.5073  EKtot   =     12460.4205  EPtot      =    -65231.9278
 BOND   =         0.5459  ANGLE   =         6.2261  DIHED      =         5.3039
 1-4 NB =         0.2309  1-4 EEL =         2.1335  VDWAALS    =      9609.3741
 EELEC  =    -74855.7422  EHBOND  =         0.0000  RESTRAINT  =         0.0000
 EKCMT  =      6239.8191  VIRIAL  =      9403.4957  VOLUME     =    227848.2861
                                                    Density    =         0.9126
 DV/DL  =        41.2877
 ------------------------------------------------------------------------------

      A V E R A G E S   O V E R    1000 S T E P S

 NSTEP =     1000   TIME(PS) =     202.000  TEMP(K) =   300.95  PRESS =  -778.7
 Etot   =    -52725.7835  EKtot   =     12469.1708  EPtot      =    -65194.9543
 BOND   =         0.6222  ANGLE   =         4.8850  DIHED      =         5.2708
 1-4 NB =         0.4425  1-4 EEL =         2.1688  VDWAALS    =      9529.8242
 EELEC  =    -74738.1678  EHBOND  =         0.0000  RESTRAINT  =         0.0000
 EKCMT  =      6237.2492  VIRIAL  =     10094.8305  VOLUME     =    229416.6134
                                                    Density    =         0.9064
 DV/DL  =        32.4220
 ------------------------------------------------------------------------------

      R M S  F L U C T U A T I O N S

 NSTEP =     1000   TIME(PS) =     202.000  TEMP(K) =     1.62  PRESS =   107.1
 Etot   =        74.5918  EKtot   =        67.0219  EPtot      =        93.9059
 BOND   =         0.5320  ANGLE   =         0.8981  DIHED      =         0.0640
 1-4 NB =         0.1949  1-4 EEL =         0.0227  VDWAALS    =       109.9958
 EELEC  =       169.9508  EHBOND  =         0.0000  RESTRAINT  =         0.0000
 EKCMT  =        42.8063  VIRIAL  =       543.4674  VOLUME     =       941.3856
                                                    Density    =         0.0037
 DV/DL  =         9.8678
 ------------------------------------------------------------------------------

      A V E R A G E S   O V E R    1000 S T E P S

 NSTEP =     1000   TIME(PS) =     202.000  TEMP(K) =   300.95  PRESS =  -778.7
 Etot   =    -52725.7835  EKtot   =     12469.1708  EPtot      =    -65194.9543
 BOND   =         0.6222  ANGLE   =         4.8850  DIHED      =         5.2708
 1-4 NB =         0.4425  1-4 EEL =         2.1688  VDWAALS    =      9529.8242
 EELEC  =    -74738.1678  EHBOND  =         0.0000  RESTRAINT  =         0.0000
 EKCMT  =      6237.2492  VIRIAL  =     10094.8305  VOLUME     =    229416.6134
                                                    Density    =         0.9064
 DV/DL  =        32.4220
 ------------------------------------------------------------------------------

      R M S  F L U C T U A T I O N S

 NSTEP =     1000   TIME(PS) =     202.000  TEMP(K) =     1.62  PRESS =   107.1
 Etot   =        74.5918  EKtot   =        67.0219  EPtot      =        93.9059
 BOND   =         0.5320  ANGLE   =         0.8981  DIHED      =         0.0640
 1-4 NB =         0.1949  1-4 EEL =         0.0227  VDWAALS    =       109.9958
 EELEC  =       169.9508  EHBOND  =         0.0000  RESTRAINT  =         0.0000
 EKCMT  =        42.8063  VIRIAL  =       543.4674  VOLUME     =       941.3856
                                                    Density    =         0.0037
 DV/DL  =         9.8678
 ------------------------------------------------------------------------------

      DV/DL, AVERAGES OVER    1000 STEPS

 NSTEP =     1000   TIME(PS) =     202.000  TEMP(K) =     1.62  PRESS =     0.0
 Etot   =         0.0000  EKtot   =         0.0000  EPtot      =        32.4220
 BOND   =         0.0000  ANGLE   =         0.0000  DIHED      =         0.0000
 1-4 NB =         0.0000  1-4 EEL =       -10.5109  VDWAALS    =         0.0000
 EELEC  =        42.9329  EHBOND  =         0.0000  RESTRAINT  =         0.0000
 EKCMT  =         0.0000  VIRIAL  =         0.0000  VOLUME     =         0.0000
                                                    Density    =         0.0000
 DV/DL  =        32.4220
 ------------------------------------------------------------------------------

      A V E R A G E S   O V E R    1000 S T E P S

 NSTEP =     2000   TIME(PS) =     204.000  TEMP(K) =   301.45  PRESS =  -611.1
 Etot   =    -52877.5540  EKtot   =     12489.7593  EPtot      =    -65367.3133
 BOND   =         0.8551  ANGLE   =         4.8669  DIHED      =         5.2472
 1-4 NB =         0.4382  1-4 EEL =         2.1674  VDWAALS    =      9627.4326
 EELEC  =    -75008.3207  EHBOND  =         0.0000  RESTRAINT  =         0.0000
 EKCMT  =      6247.8321  VIRIAL  =      9237.5986  VOLUME     =    226630.8751
                                                    Density    =         0.9175
 DV/DL  =        39.5716
 ------------------------------------------------------------------------------

      R M S  F L U C T U A T I O N S

 NSTEP =     2000   TIME(PS) =     204.000  TEMP(K) =     1.97  PRESS =   153.7
 Etot   =        69.2527  EKtot   =        81.6646  EPtot      =        79.1772
 BOND   =         0.6485  ANGLE   =         0.9424  DIHED      =         0.0468
 1-4 NB =         0.2443  1-4 EEL =         0.0377  VDWAALS    =       152.7275
 EELEC  =       173.5223  EHBOND  =         0.0000  RESTRAINT  =         0.0000
 EKCMT  =        53.0877  VIRIAL  =       744.9530  VOLUME     =       679.4221
                                                    Density    =         0.0028
 DV/DL  =         8.1453
 ------------------------------------------------------------------------------

      A V E R A G E S   O V E R    1000 S T E P S

 NSTEP =     2000   TIME(PS) =     204.000  TEMP(K) =   301.45  PRESS =  -611.1
 Etot   =    -52877.5540  EKtot   =     12489.7593  EPtot      =    -65367.3133
 BOND   =         0.8551  ANGLE   =         4.8669  DIHED      =         5.2472
 1-4 NB =         0.4382  1-4 EEL =         2.1674  VDWAALS    =      9627.4326
 EELEC  =    -75008.3207  EHBOND  =         0.0000  RESTRAINT  =         0.0000
 EKCMT  =      6247.8321  VIRIAL  =      9237.5986  VOLUME     =    226630.8751
                                                    Density    =         0.9175
 DV/DL  =        39.5716
 ------------------------------------------------------------------------------

      R M S  F L U C T U A T I O N S

 NSTEP =     2000   TIME(PS) =     204.000  TEMP(K) =     1.97  PRESS =   153.7
 Etot   =        69.2527  EKtot   =        81.6646  EPtot      =        79.1772
 BOND   =         0.6485  ANGLE   =         0.9424  DIHED      =         0.0468
 1-4 NB =         0.2443  1-4 EEL =         0.0377  VDWAALS    =       152.7275
 EELEC  =       173.5223  EHBOND  =         0.0000  RESTRAINT  =         0.0000
 EKCMT  =        53.0877  VIRIAL  =       744.9530  VOLUME     =       679.4221
                                                    Density    =         0.0028
 DV/DL  =         8.1453
 ------------------------------------------------------------------------------

      DV/DL, AVERAGES OVER    1000 STEPS

 NSTEP =     2000   TIME(PS) =     204.000  TEMP(K) =     1.97  PRESS =     0.0
 Etot   =         0.0000  EKtot   =         0.0000  EPtot      =        39.5716
 BOND   =         0.0000  ANGLE   =         0.0000  DIHED      =         0.0000
 1-4 NB =         0.0000  1-4 EEL =       -10.5041  VDWAALS    =         0.0000
 EELEC  =        50.0756  EHBOND  =         0.0000  RESTRAINT  =         0.0000
 EKCMT  =         0.0000  VIRIAL  =         0.0000  VOLUME     =         0.0000
                                                    Density    =         0.0000
 DV/DL  =        39.5716
 ------------------------------------------------------------------------------

      A V E R A G E S   O V E R    1000 S T E P S

 NSTEP =   500000   TIME(PS) =    1200.000  TEMP(K) =   301.20  PRESS =    66.4
 Etot   =    -53698.3084  EKtot   =     12479.7585  EPtot      =    -66178.0670
 BOND   =         1.6452  ANGLE   =         4.9189  DIHED      =         5.2595
 1-4 NB =         0.4479  1-4 EEL =         2.1665  VDWAALS    =      9929.4526
 EELEC  =    -76121.9576  EHBOND  =         0.0000  RESTRAINT  =         0.0000
 EKCMT  =      6263.0021  VIRIAL  =      5959.6859  VOLUME     =    211566.8143
                                                    Density    =         0.9828
 DV/DL  =        34.8211
 ------------------------------------------------------------------------------

      R M S  F L U C T U A T I O N S

 NSTEP =   500000   TIME(PS) =    1200.000  TEMP(K) =     1.96  PRESS =   145.1
 Etot   =        87.8928  EKtot   =        81.2215  EPtot      =        77.5522
 BOND   =         1.0845  ANGLE   =         0.9170  DIHED      =         0.0466
 1-4 NB =         0.2701  1-4 EEL =         0.0372  VDWAALS    =       139.4873
 EELEC  =       171.4757  EHBOND  =         0.0000  RESTRAINT  =         0.0000
 EKCMT  =        60.8878  VIRIAL  =       662.0070  VOLUME     =        87.5475
                                                    Density    =         0.0004
 DV/DL  =         9.8137
 ------------------------------------------------------------------------------

      A V E R A G E S   O V E R    1000 S T E P S

 NSTEP =   500000   TIME(PS) =    1200.000  TEMP(K) =   301.20  PRESS =    66.4
 Etot   =    -53698.3084  EKtot   =     12479.7585  EPtot      =    -66178.0670
 BOND   =         1.6452  ANGLE   =         4.9189  DIHED      =         5.2595
 1-4 NB =         0.4479  1-4 EEL =         2.1665  VDWAALS    =      9929.4526
 EELEC  =    -76121.9576  EHBOND  =         0.0000  RESTRAINT  =         0.0000
 EKCMT  =      6263.0021  VIRIAL  =      5959.6859  VOLUME     =    211566.8143
                                                    Density    =         0.9828
 DV/DL  =        34.8211
 ------------------------------------------------------------------------------

      R M S  F L U C T U A T I O N S

 NSTEP =   500000   TIME(PS) =    1200.000  TEMP(K) =     1.96  PRESS =   145.1
 Etot   =        87.8928  EKtot   =        81.2215  EPtot      =        77.5522
 BOND   =         1.0845  ANGLE   =         0.9170  DIHED      =         0.0466
 1-4 NB =         0.2701  1-4 EEL =         0.0372  VDWAALS    =       139.4873
 EELEC  =       171.4757  EHBOND  =         0.0000  RESTRAINT  =         0.0000
 EKCMT  =        60.8878  VIRIAL  =       662.0070  VOLUME     =        87.5475
                                                    Density    =         0.0004
 DV/DL  =         9.8137
 ------------------------------------------------------------------------------

      DV/DL, AVERAGES OVER    1000 STEPS

 NSTEP =   500000   TIME(PS) =    1200.000  TEMP(K) =     1.96  PRESS =     0.0
 Etot   =         0.0000  EKtot   =         0.0000  EPtot      =        34.8211
 BOND   =         0.0000  ANGLE   =         0.0000  DIHED      =         0.0000
 1-4 NB =         0.0000  1-4 EEL =       -10.4998  VDWAALS    =         0.0000
 EELEC  =        45.3209  EHBOND  =         0.0000  RESTRAINT  =         0.0000
 EKCMT  =         0.0000  VIRIAL  =         0.0000  VOLUME     =         0.0000
                                                    Density    =         0.0000
 DV/DL  =        34.8211
 ------------------------------------------------------------------------------

      A V E R A G E S   O V E R  500000 S T E P S

 NSTEP =   500000   TIME(PS) =    1200.000  TEMP(K) =   300.20  PRESS =    -8.8
 Etot   =    -53798.4089  EKtot   =     12437.9743  EPtot      =    -66236.3833
 BOND   =         0.9627  ANGLE   =         5.1490  DIHED      =         5.2796
 1-4 NB =         0.4691  1-4 EEL =         2.1691  VDWAALS    =      9901.7108
 EELEC  =    -76152.1235  EHBOND  =         0.0000  RESTRAINT  =         0.0000
 EKCMT  =      6238.1752  VIRIAL  =      6280.1976  VOLUME     =    211780.7349
                                                    Density    =         0.9819
 DV/DL  =        34.7382
 ------------------------------------------------------------------------------

      R M S  F L U C T U A T I O N S

 NSTEP =   500000   TIME(PS) =    1200.000  TEMP(K) =     2.05  PRESS =   144.8
 Etot   =       170.4599  EKtot   =        84.9729  EPtot      =       146.1922
 BOND   =         0.7916  ANGLE   =         1.2039  DIHED      =         0.0890
 1-4 NB =         0.2744  1-4 EEL =         0.0354  VDWAALS    =       127.2644
 EELEC  =       223.3357  EHBOND  =         0.0000  RESTRAINT  =         0.0000
 EKCMT  =        60.9390  VIRIAL  =       668.8705  VOLUME     =      1445.1214
                                                    Density    =         0.0063
 DV/DL  =         9.7459
 ------------------------------------------------------------------------------

      A V E R A G E S   O V E R  500000 S T E P S

 NSTEP =   500000   TIME(PS) =    1200.000  TEMP(K) =   300.20  PRESS =    -8.8
 Etot   =    -53798.4089  EKtot   =     12437.9743  EPtot      =    -66236.3833
 BOND   =         0.9627  ANGLE   =         5.1490  DIHED      =         5.2796
 1-4 NB =         0.4691  1-4 EEL =         2.1691  VDWAALS    =      9901.7108
 EELEC  =    -76152.1235  EHBOND  =         0.0000  RESTRAINT  =         0.0000
 EKCMT  =      6238.1752  VIRIAL  =      6280.1976  VOLUME     =    211780.7349
                                                    Density    =         0.9819
 DV/DL  =        34.7382
 ------------------------------------------------------------------------------

      R M S  F L U C T U A T I O N S

 NSTEP =   500000   TIME(PS) =    1200.000  TEMP(K) =     2.05  PRESS =   144.8
 Etot   =       170.4599  EKtot   =        84.9729  EPtot      =       146.1922
 BOND   =         0.7916  ANGLE   =         1.2039  DIHED      =         0.0890
 1-4 NB =         0.2744  1-4 EEL =         0.0354  VDWAALS    =       127.2644
 EELEC  =       223.3357  EHBOND  =         0.0000  RESTRAINT  =         0.0000
 EKCMT  =        60.9390  VIRIAL  =       668.8705  VOLUME     =      1445.1214
                                                    Density    =         0.0063
 DV/DL  =         9.7459
 ------------------------------------------------------------------------------

      DV/DL, AVERAGES OVER  500000 STEPS

 NSTEP =   500000   TIME(PS) =    1200.000  TEMP(K) =     2.05  PRESS =     0.0
 Etot   =         0.0000  EKtot   =         0.0000  EPtot      =        34.7382
 BOND   =         0.0000  ANGLE   =         0.0000  DIHED      =         0.0000
 1-4 NB =         0.0000  1-4 EEL =       -10.5122  VDWAALS    =         0.0000
 EELEC  =        45.2504  EHBOND  =         0.0000  RESTRAINT  =         0.0000
 EKCMT  =         0.0000  VIRIAL  =         0.0000  VOLUME     =         0.0000
                                                    Density    =         0.0000
 DV/DL  =        34.7382
 ------------------------------------------------------------------------------
