-------------------------------------------------------
          Amber 18 PMEMD                              2018
          -------------------------------------------------------

  [-O]verwriting output

File Assignments:

 Here is the input file:

 &cntrl
   nstlim=500000, nscm=1000,
   ntx=5, irest=1, ntpr=1000,
   tempi=300.0, temp0=300.0, ntt=3, gamma_ln=2.0,
   ntp=1, pres0=1.01325, taup=5.0,
   ntb=2, igb=0, cut=10.0,
   dt=0.002, ig=-1,
   ntc=2, ntf=2,
   iwrap=0,
   ntwr=1000, ntwx=50000, ntave=1000,
   ioutfm=1, ntwv=-1,
   ifsc = 0, icfe=1,
   clambda=0.04794,
   timask1=':1',
   timask2=':2', crgmask = ':2',
/

Note: ig = -1. Setting random seed to   575145 based on wallclock time in
      microseconds.

--------------------------------------------------------------------------------
   1.  RESOURCE   USE:
--------------------------------------------------------------------------------

 getting box info from netcdf restart file
 NATOM  =   20855 NTYPES =       6 NBONH =   20847 MBONA  =       6
 NTHETH =      12 MTHETA =       6 NPHIH =      24 MPHIA  =       2
 NHPARM =       0 NPARM  =       0 NNB   =   27832 NRES   =    6949
 NBONA  =       6 NTHETA =       6 NPHIA =       2 NUMBND =       5
 NUMANG =       4 NPTRA  =       3 NATYP =       6 NPHB   =       1
 IFBOX  =       2 NMXRS  =       7 IFCAP =       0 NEXTRA =       0
 NCOPY  =       0

     BOX TYPE: TRUNCATED OCTAHEDRON

--------------------------------------------------------------------------------
   2.  CONTROL  DATA  FOR  THE  RUN
--------------------------------------------------------------------------------

default_name

General flags:
     imin    =       0, nmropt  =       0

Nature and format of input:
     ntx     =       5, irest   =       1, ntrx    =       1

Nature and format of output:
     ntxo    =       2, ntpr    =    1000, ntrx    =       1, ntwr    =    1000
     iwrap   =       0, ntwx    =   50000, ntwv    =      -1, ntwe    =       0
     ioutfm  =       1, ntwprt  =       0, idecomp =       0, rbornstat=      0

Potential function:
     ntf     =       2, ntb     =       2, igb     =       0, nsnb    =      25
     ipol    =       0, gbsa    =       0, iesp    =       0
     dielc   =   1.00000, cut     =  10.00000, intdiel =   1.00000

Frozen or restrained atoms:
     ibelly  =       0, ntr     =       0

Molecular dynamics:
     nstlim  =    500000, nscm    =      1000, nrespa  =         1
     t       =   0.00000, dt      =   0.00200, vlimit  =  -1.00000

Langevin dynamics temperature regulation:
     ig      =  575145
     temp0   = 300.00000, tempi   = 300.00000, gamma_ln=   2.00000

Pressure regulation:
     ntp     =       1
     pres0   =   1.01325, comp    =  44.60000, taup    =   5.00000

SHAKE:
     ntc     =       2, jfastw  =       0
     tol     =   0.00001

Free energy options:
     icfe    =       1, ifsc    =       0, klambda =       1
     clambda =  0.0479, scalpha =  0.5000, scbeta  = 12.0000
     sceeorder =       2
     dynlmb =  0.0000 logdvdl =       0

Ewald parameters:
     verbose =       0, ew_type =       0, nbflag  =       1, use_pme =       1
     vdwmeth =       1, eedmeth =       1, netfrc  =       1
     Box X =   66.953   Box Y =   66.953   Box Z =   66.953
     Alpha =  109.471   Beta  =  109.471   Gamma =  109.471
     NFFT1 =   64       NFFT2 =   64       NFFT3 =   64
     Cutoff=   10.000   Tol   =0.100E-04
     Ewald Coefficient =  0.27511
     Interpolation order =    4
     TI Mask 1 :1; matches      7 atoms
     TI Mask 2 :2; matches      7 atoms
     TI region 1:   20848 atoms
     TI region 2:   20848 atoms
Removing charge of      -0.8188 from atom       8
Removing charge of      -0.8188 from atom       9
Removing charge of       0.8054 from atom      10
Removing charge of      -0.1021 from atom      11
Removing charge of      -0.0219 from atom      12
Removing charge of      -0.0219 from atom      13
Removing charge of      -0.0219 from atom      14
Total charge of  -0.99999900 removed from       7 atoms
     Checking for mismatched coordinates.

--------------------------------------------------------------------------------
   3.  ATOMIC COORDINATES AND VELOCITIES
--------------------------------------------------------------------------------

default_name
 begin time read from input coords =   200.000 ps

 Number of triangulated 3-point waters found:     6947

     Sum of charges for TI region  1 =  -0.99999900
     Assuming uniform neutralizing plasma

     Sum of charges for TI region  2 =   0.00000000
     Forcing neutrality...

--------------------------------------------------------------------------------
   4.  RESULTS
 NSTEP =     1000   TIME(PS) =     202.000  TEMP(K) =   302.58  PRESS =  -502.4
 Etot   =    -53072.9045  EKtot   =     12536.8593  EPtot      =    -65609.7638
 BOND   =         2.3371  ANGLE   =         6.6218  DIHED      =         5.3117
 1-4 NB =         0.3868  1-4 EEL =         9.8709  VDWAALS    =      9780.6103
 EELEC  =    -75414.9025  EHBOND  =         0.0000  RESTRAINT  =         0.0000
 EKCMT  =      6293.3984  VIRIAL  =      8771.2774  VOLUME     =    228421.3193
                                                    Density    =         0.9103
 DV/DL  =       173.6451
 ------------------------------------------------------------------------------

      A V E R A G E S   O V E R    1000 S T E P S

 NSTEP =     1000   TIME(PS) =     202.000  TEMP(K) =   299.82  PRESS =  -637.8
 Etot   =    -52966.5134  EKtot   =     12422.4643  EPtot      =    -65388.9777
 BOND   =         1.1477  ANGLE   =         5.7712  DIHED      =         5.2854
 1-4 NB =         0.3273  1-4 EEL =         9.9280  VDWAALS    =      9623.6399
 EELEC  =    -75035.0772  EHBOND  =         0.0000  RESTRAINT  =         0.0000
 EKCMT  =      6241.2817  VIRIAL  =      9404.6448  VOLUME     =    229704.9328
                                                    Density    =         0.9052
 DV/DL  =       169.1205
 ------------------------------------------------------------------------------

      R M S  F L U C T U A T I O N S

 NSTEP =     1000   TIME(PS) =     202.000  TEMP(K) =     1.87  PRESS =   101.8
 Etot   =       133.1994  EKtot   =        77.5924  EPtot      =       116.3415
 BOND   =         0.9131  ANGLE   =         1.3751  DIHED      =         0.0888
 1-4 NB =         0.1795  1-4 EEL =         0.1561  VDWAALS    =       104.0580
 EELEC  =       170.0245  EHBOND  =         0.0000  RESTRAINT  =         0.0000
 EKCMT  =        48.2061  VIRIAL  =       518.8362  VOLUME     =       752.9091
                                                    Density    =         0.0030
 DV/DL  =         8.0081
 ------------------------------------------------------------------------------

      A V E R A G E S   O V E R    1000 S T E P S

 NSTEP =     1000   TIME(PS) =     202.000  TEMP(K) =   299.82  PRESS =  -637.8
 Etot   =    -52966.5134  EKtot   =     12422.4643  EPtot      =    -65388.9777
 BOND   =         1.1477  ANGLE   =         5.7712  DIHED      =         5.2854
 1-4 NB =         0.3273  1-4 EEL =         9.9280  VDWAALS    =      9623.6399
 EELEC  =    -75035.0772  EHBOND  =         0.0000  RESTRAINT  =         0.0000
 EKCMT  =      6241.2817  VIRIAL  =      9404.6448  VOLUME     =    229704.9328
                                                    Density    =         0.9052
 DV/DL  =       169.1205
 ------------------------------------------------------------------------------

      R M S  F L U C T U A T I O N S

 NSTEP =     1000   TIME(PS) =     202.000  TEMP(K) =     1.87  PRESS =   101.8
 Etot   =       133.1994  EKtot   =        77.5924  EPtot      =       116.3415
 BOND   =         0.9131  ANGLE   =         1.3751  DIHED      =         0.0888
 1-4 NB =         0.1795  1-4 EEL =         0.1561  VDWAALS    =       104.0580
 EELEC  =       170.0245  EHBOND  =         0.0000  RESTRAINT  =         0.0000
 EKCMT  =        48.2061  VIRIAL  =       518.8362  VOLUME     =       752.9091
                                                    Density    =         0.0030
 DV/DL  =         8.0081
 ------------------------------------------------------------------------------

      DV/DL, AVERAGES OVER    1000 STEPS

 NSTEP =     1000   TIME(PS) =     202.000  TEMP(K) =     1.87  PRESS =     0.0
 Etot   =         0.0000  EKtot   =         0.0000  EPtot      =       169.1205
 BOND   =         0.0000  ANGLE   =         0.0000  DIHED      =         0.0000
 1-4 NB =         0.0000  1-4 EEL =       -10.4279  VDWAALS    =         0.0000
 EELEC  =       179.5484  EHBOND  =         0.0000  RESTRAINT  =         0.0000
 EKCMT  =         0.0000  VIRIAL  =         0.0000  VOLUME     =         0.0000
                                                    Density    =         0.0000
 DV/DL  =       169.1205
 ------------------------------------------------------------------------------

      A V E R A G E S   O V E R    1000 S T E P S

 NSTEP =     2000   TIME(PS) =     204.000  TEMP(K) =   300.60  PRESS =  -558.3
 Etot   =    -53060.4777  EKtot   =     12454.6338  EPtot      =    -65515.1115
 BOND   =         0.8447  ANGLE   =         5.6589  DIHED      =         5.3266
 1-4 NB =         0.3411  1-4 EEL =         9.9211  VDWAALS    =      9658.5680
 EELEC  =    -75195.7719  EHBOND  =         0.0000  RESTRAINT  =         0.0000
 EKCMT  =      6220.4387  VIRIAL  =      8960.0537  VOLUME     =    227305.0363
                                                    Density    =         0.9148
 DV/DL  =       165.1872
 ------------------------------------------------------------------------------

      R M S  F L U C T U A T I O N S

 NSTEP =     2000   TIME(PS) =     204.000  TEMP(K) =     1.78  PRESS =   112.1
 Etot   =        90.1911  EKtot   =        73.9257  EPtot      =        87.3398
 BOND   =         0.6159  ANGLE   =         1.2631  DIHED      =         0.1325
 1-4 NB =         0.1716  1-4 EEL =         0.1321  VDWAALS    =       112.4669
 EELEC  =       140.2084  EHBOND  =         0.0000  RESTRAINT  =         0.0000
 EKCMT  =        52.9540  VIRIAL  =       550.6177  VOLUME     =       659.9220
                                                    Density    =         0.0027
 DV/DL  =        10.2486
 ------------------------------------------------------------------------------

      A V E R A G E S   O V E R    1000 S T E P S

 NSTEP =     2000   TIME(PS) =     204.000  TEMP(K) =   300.60  PRESS =  -558.3
 Etot   =    -53060.4777  EKtot   =     12454.6338  EPtot      =    -65515.1115
 BOND   =         0.8447  ANGLE   =         5.6589  DIHED      =         5.3266
 1-4 NB =         0.3411  1-4 EEL =         9.9211  VDWAALS    =      9658.5680
 EELEC  =    -75195.7719  EHBOND  =         0.0000  RESTRAINT  =         0.0000
 EKCMT  =      6220.4387  VIRIAL  =      8960.0537  VOLUME     =    227305.0363
                                                    Density    =         0.9148
 DV/DL  =       165.1872
 ------------------------------------------------------------------------------

      R M S  F L U C T U A T I O N S

 NSTEP =     2000   TIME(PS) =     204.000  TEMP(K) =     1.78  PRESS =   112.1
 Etot   =        90.1911  EKtot   =        73.9257  EPtot      =        87.3398
 BOND   =         0.6159  ANGLE   =         1.2631  DIHED      =         0.1325
 1-4 NB =         0.1716  1-4 EEL =         0.1321  VDWAALS    =       112.4669
 EELEC  =       140.2084  EHBOND  =         0.0000  RESTRAINT  =         0.0000
 EKCMT  =        52.9540  VIRIAL  =       550.6177  VOLUME     =       659.9220
                                                    Density    =         0.0027
 DV/DL  =        10.2486
 ------------------------------------------------------------------------------

      DV/DL, AVERAGES OVER    1000 STEPS

 NSTEP =     2000   TIME(PS) =     204.000  TEMP(K) =     1.78  PRESS =     0.0
 Etot   =         0.0000  EKtot   =         0.0000  EPtot      =       165.1872
 BOND   =         0.0000  ANGLE   =         0.0000  DIHED      =         0.0000
 1-4 NB =         0.0000  1-4 EEL =       -10.4207  VDWAALS    =         0.0000
 EELEC  =       175.6078  EHBOND  =         0.0000  RESTRAINT  =         0.0000
 EKCMT  =         0.0000  VIRIAL  =         0.0000  VOLUME     =         0.0000
                                                    Density    =         0.0000
 DV/DL  =       165.1872
 ------------------------------------------------------------------------------

      A V E R A G E S   O V E R    1000 S T E P S

 NSTEP =   500000   TIME(PS) =    1200.000  TEMP(K) =   299.12  PRESS =    18.1
 Etot   =    -54030.2699  EKtot   =     12393.4206  EPtot      =    -66423.6905
 BOND   =         0.8567  ANGLE   =         5.0732  DIHED      =         5.2503
 1-4 NB =         0.3308  1-4 EEL =         9.9169  VDWAALS    =      9992.2932
 EELEC  =    -76437.4115  EHBOND  =         0.0000  RESTRAINT  =         0.0000
 EKCMT  =      6216.4989  VIRIAL  =      6133.9941  VOLUME     =    211712.9844
                                                    Density    =         0.9821
 DV/DL  =       161.4071
 ------------------------------------------------------------------------------

      R M S  F L U C T U A T I O N S

 NSTEP =   500000   TIME(PS) =    1200.000  TEMP(K) =     1.51  PRESS =   119.7
 Etot   =        80.0056  EKtot   =        62.7160  EPtot      =        90.1523
 BOND   =         0.6301  ANGLE   =         1.0654  DIHED      =         0.0497
 1-4 NB =         0.1680  1-4 EEL =         0.1499  VDWAALS    =       114.1607
 EELEC  =       150.8357  EHBOND  =         0.0000  RESTRAINT  =         0.0000
 EKCMT  =        54.1730  VIRIAL  =       545.6103  VOLUME     =        31.9741
                                                    Density    =         0.0001
 DV/DL  =         9.4859
 ------------------------------------------------------------------------------

      A V E R A G E S   O V E R    1000 S T E P S

 NSTEP =   500000   TIME(PS) =    1200.000  TEMP(K) =   299.12  PRESS =    18.1
 Etot   =    -54030.2699  EKtot   =     12393.4206  EPtot      =    -66423.6905
 BOND   =         0.8567  ANGLE   =         5.0732  DIHED      =         5.2503
 1-4 NB =         0.3308  1-4 EEL =         9.9169  VDWAALS    =      9992.2932
 EELEC  =    -76437.4115  EHBOND  =         0.0000  RESTRAINT  =         0.0000
 EKCMT  =      6216.4989  VIRIAL  =      6133.9941  VOLUME     =    211712.9844
                                                    Density    =         0.9821
 DV/DL  =       161.4071
 ------------------------------------------------------------------------------

      R M S  F L U C T U A T I O N S

 NSTEP =   500000   TIME(PS) =    1200.000  TEMP(K) =     1.51  PRESS =   119.7
 Etot   =        80.0056  EKtot   =        62.7160  EPtot      =        90.1523
 BOND   =         0.6301  ANGLE   =         1.0654  DIHED      =         0.0497
 1-4 NB =         0.1680  1-4 EEL =         0.1499  VDWAALS    =       114.1607
 EELEC  =       150.8357  EHBOND  =         0.0000  RESTRAINT  =         0.0000
 EKCMT  =        54.1730  VIRIAL  =       545.6103  VOLUME     =        31.9741
                                                    Density    =         0.0001
 DV/DL  =         9.4859
 ------------------------------------------------------------------------------

      DV/DL, AVERAGES OVER    1000 STEPS

 NSTEP =   500000   TIME(PS) =    1200.000  TEMP(K) =     1.51  PRESS =     0.0
 Etot   =         0.0000  EKtot   =         0.0000  EPtot      =       161.4071
 BOND   =         0.0000  ANGLE   =         0.0000  DIHED      =         0.0000
 1-4 NB =         0.0000  1-4 EEL =       -10.4162  VDWAALS    =         0.0000
 EELEC  =       171.8233  EHBOND  =         0.0000  RESTRAINT  =         0.0000
 EKCMT  =         0.0000  VIRIAL  =         0.0000  VOLUME     =         0.0000
                                                    Density    =         0.0000
 DV/DL  =       161.4071
 ------------------------------------------------------------------------------

      A V E R A G E S   O V E R  500000 S T E P S

 NSTEP =   500000   TIME(PS) =    1200.000  TEMP(K) =   299.97  PRESS =    -8.8
 Etot   =    -53914.8400  EKtot   =     12428.7763  EPtot      =    -66343.6162
 BOND   =         0.9586  ANGLE   =         5.4337  DIHED      =         5.2868
 1-4 NB =         0.3450  1-4 EEL =         9.9296  VDWAALS    =      9917.1285
 EELEC  =    -76282.6983  EHBOND  =         0.0000  RESTRAINT  =         0.0000
 EKCMT  =      6232.9379  VIRIAL  =      6275.0916  VOLUME     =    211665.3889
                                                    Density    =         0.9824
 DV/DL  =       162.8224
 ------------------------------------------------------------------------------

      R M S  F L U C T U A T I O N S

 NSTEP =   500000   TIME(PS) =    1200.000  TEMP(K) =     2.05  PRESS =   142.4
 Etot   =       161.5122  EKtot   =        85.1354  EPtot      =       141.0002
 BOND   =         0.7856  ANGLE   =         1.3494  DIHED      =         0.0980
 1-4 NB =         0.2022  1-4 EEL =         0.1556  VDWAALS    =       127.4535
 EELEC  =       219.0948  EHBOND  =         0.0000  RESTRAINT  =         0.0000
 EKCMT  =        61.1024  VIRIAL  =       655.8114  VOLUME     =      1580.5540
                                                    Density    =         0.0069
 DV/DL  =        10.1998
 ------------------------------------------------------------------------------

      A V E R A G E S   O V E R  500000 S T E P S

 NSTEP =   500000   TIME(PS) =    1200.000  TEMP(K) =   299.97  PRESS =    -8.8
 Etot   =    -53914.8400  EKtot   =     12428.7763  EPtot      =    -66343.6162
 BOND   =         0.9586  ANGLE   =         5.4337  DIHED      =         5.2868
 1-4 NB =         0.3450  1-4 EEL =         9.9296  VDWAALS    =      9917.1285
 EELEC  =    -76282.6983  EHBOND  =         0.0000  RESTRAINT  =         0.0000
 EKCMT  =      6232.9379  VIRIAL  =      6275.0916  VOLUME     =    211665.3889
                                                    Density    =         0.9824
 DV/DL  =       162.8224
 ------------------------------------------------------------------------------

      R M S  F L U C T U A T I O N S

 NSTEP =   500000   TIME(PS) =    1200.000  TEMP(K) =     2.05  PRESS =   142.4
 Etot   =       161.5122  EKtot   =        85.1354  EPtot      =       141.0002
 BOND   =         0.7856  ANGLE   =         1.3494  DIHED      =         0.0980
 1-4 NB =         0.2022  1-4 EEL =         0.1556  VDWAALS    =       127.4535
 EELEC  =       219.0948  EHBOND  =         0.0000  RESTRAINT  =         0.0000
 EKCMT  =        61.1024  VIRIAL  =       655.8114  VOLUME     =      1580.5540
                                                    Density    =         0.0069
 DV/DL  =        10.1998
 ------------------------------------------------------------------------------

      DV/DL, AVERAGES OVER  500000 STEPS

 NSTEP =   500000   TIME(PS) =    1200.000  TEMP(K) =     2.05  PRESS =     0.0
 Etot   =         0.0000  EKtot   =         0.0000  EPtot      =       162.8224
 BOND   =         0.0000  ANGLE   =         0.0000  DIHED      =         0.0000
 1-4 NB =         0.0000  1-4 EEL =       -10.4296  VDWAALS    =         0.0000
 EELEC  =       173.2520  EHBOND  =         0.0000  RESTRAINT  =         0.0000
 EKCMT  =         0.0000  VIRIAL  =         0.0000  VOLUME     =         0.0000
                                                    Density    =         0.0000
 DV/DL  =       162.8224
 ------------------------------------------------------------------------------
