-------------------------------------------------------
          Amber 18 PMEMD                              2018
          -------------------------------------------------------

  [-O]verwriting output

File Assignments:

 Here is the input file:

 &cntrl
   nstlim=500000, nscm=1000,
   ntx=5, irest=1, ntpr=1000,
   tempi=300.0, temp0=300.0, ntt=3, gamma_ln=2.0,
   ntp=1, pres0=1.01325, taup=5.0,
   ntb=2, igb=0, cut=10.0,
   dt=0.002, ig=-1,
   ntc=2, ntf=2,
   iwrap=0,
   ntwr=1000, ntwx=50000, ntave=1000,
   ioutfm=1, ntwv=-1,
   ifsc = 0, icfe=1,
   clambda=0.56262,
   timask1=':1',
   timask2=':2', crgmask = ':2',
/

Note: ig = -1. Setting random seed to   552888 based on wallclock time in
      microseconds.

--------------------------------------------------------------------------------
   1.  RESOURCE   USE:
--------------------------------------------------------------------------------

 getting box info from netcdf restart file
 NATOM  =   20855 NTYPES =       6 NBONH =   20847 MBONA  =       6
 NTHETH =      12 MTHETA =       6 NPHIH =      24 MPHIA  =       2
 NHPARM =       0 NPARM  =       0 NNB   =   27832 NRES   =    6949
 NBONA  =       6 NTHETA =       6 NPHIA =       2 NUMBND =       5
 NUMANG =       4 NPTRA  =       3 NATYP =       6 NPHB   =       1
 IFBOX  =       2 NMXRS  =       7 IFCAP =       0 NEXTRA =       0
 NCOPY  =       0

     BOX TYPE: TRUNCATED OCTAHEDRON

--------------------------------------------------------------------------------
   2.  CONTROL  DATA  FOR  THE  RUN
--------------------------------------------------------------------------------

default_name

General flags:
     imin    =       0, nmropt  =       0

Nature and format of input:
     ntx     =       5, irest   =       1, ntrx    =       1

Nature and format of output:
     ntxo    =       2, ntpr    =    1000, ntrx    =       1, ntwr    =    1000
     iwrap   =       0, ntwx    =   50000, ntwv    =      -1, ntwe    =       0
     ioutfm  =       1, ntwprt  =       0, idecomp =       0, rbornstat=      0

Potential function:
     ntf     =       2, ntb     =       2, igb     =       0, nsnb    =      25
     ipol    =       0, gbsa    =       0, iesp    =       0
     dielc   =   1.00000, cut     =  10.00000, intdiel =   1.00000

Frozen or restrained atoms:
     ibelly  =       0, ntr     =       0

Molecular dynamics:
     nstlim  =    500000, nscm    =      1000, nrespa  =         1
     t       =   0.00000, dt      =   0.00200, vlimit  =  -1.00000

Langevin dynamics temperature regulation:
     ig      =  552888
     temp0   = 300.00000, tempi   = 300.00000, gamma_ln=   2.00000

Pressure regulation:
     ntp     =       1
     pres0   =   1.01325, comp    =  44.60000, taup    =   5.00000

SHAKE:
     ntc     =       2, jfastw  =       0
     tol     =   0.00001

Free energy options:
     icfe    =       1, ifsc    =       0, klambda =       1
     clambda =  0.5626, scalpha =  0.5000, scbeta  = 12.0000
     sceeorder =       2
     dynlmb =  0.0000 logdvdl =       0

Ewald parameters:
     verbose =       0, ew_type =       0, nbflag  =       1, use_pme =       1
     vdwmeth =       1, eedmeth =       1, netfrc  =       1
     Box X =   66.953   Box Y =   66.953   Box Z =   66.953
     Alpha =  109.471   Beta  =  109.471   Gamma =  109.471
     NFFT1 =   64       NFFT2 =   64       NFFT3 =   64
     Cutoff=   10.000   Tol   =0.100E-04
     Ewald Coefficient =  0.27511
     Interpolation order =    4
     TI Mask 1 :1; matches      7 atoms
     TI Mask 2 :2; matches      7 atoms
     TI region 1:   20848 atoms
     TI region 2:   20848 atoms
Removing charge of      -0.8188 from atom       8
Removing charge of      -0.8188 from atom       9
Removing charge of       0.8054 from atom      10
Removing charge of      -0.1021 from atom      11
Removing charge of      -0.0219 from atom      12
Removing charge of      -0.0219 from atom      13
Removing charge of      -0.0219 from atom      14
Total charge of  -0.99999900 removed from       7 atoms
     Checking for mismatched coordinates.

--------------------------------------------------------------------------------
   3.  ATOMIC COORDINATES AND VELOCITIES
--------------------------------------------------------------------------------

default_name
 begin time read from input coords =   200.000 ps

 Number of triangulated 3-point waters found:     6947

     Sum of charges for TI region  1 =  -0.99999900
     Assuming uniform neutralizing plasma

     Sum of charges for TI region  2 =   0.00000000
     Forcing neutrality...

--------------------------------------------------------------------------------
   4.  RESULTS
 NSTEP =     1000   TIME(PS) =     202.000  TEMP(K) =   299.78  PRESS =  -909.6
 Etot   =    -52855.1382  EKtot   =     12420.7044  EPtot      =    -65275.8426
 BOND   =         0.4234  ANGLE   =         4.1400  DIHED      =         5.2389
 1-4 NB =         0.4128  1-4 EEL =         4.6183  VDWAALS    =      9439.7454
 EELEC  =    -74730.4214  EHBOND  =         0.0000  RESTRAINT  =         0.0000
 EKCMT  =      6227.8956  VIRIAL  =     10694.9593  VOLUME     =    227452.8474
                                                    Density    =         0.9142
 DV/DL  =        81.4323
 ------------------------------------------------------------------------------

      A V E R A G E S   O V E R    1000 S T E P S

 NSTEP =     1000   TIME(PS) =     202.000  TEMP(K) =   300.95  PRESS =  -876.3
 Etot   =    -52570.5997  EKtot   =     12469.2099  EPtot      =    -65039.8096
 BOND   =         1.1487  ANGLE   =         5.7845  DIHED      =         5.3183
 1-4 NB =         0.4381  1-4 EEL =         4.5886  VDWAALS    =      9480.0046
 EELEC  =    -74537.0925  EHBOND  =         0.0000  RESTRAINT  =         0.0000
 EKCMT  =      6264.0226  VIRIAL  =     10601.5001  VOLUME     =    229207.4584
                                                    Density    =         0.9072
 DV/DL  =        75.5080
 ------------------------------------------------------------------------------

      R M S  F L U C T U A T I O N S

 NSTEP =     1000   TIME(PS) =     202.000  TEMP(K) =     2.24  PRESS =   141.6
 Etot   =       119.4147  EKtot   =        92.6852  EPtot      =        97.1699
 BOND   =         0.9189  ANGLE   =         1.2399  DIHED      =         0.1137
 1-4 NB =         0.2616  1-4 EEL =         0.0778  VDWAALS    =       124.4056
 EELEC  =       150.0784  EHBOND  =         0.0000  RESTRAINT  =         0.0000
 EKCMT  =        64.3855  VIRIAL  =       685.8701  VOLUME     =       987.6139
                                                    Density    =         0.0039
 DV/DL  =         8.8686
 ------------------------------------------------------------------------------

      A V E R A G E S   O V E R    1000 S T E P S

 NSTEP =     1000   TIME(PS) =     202.000  TEMP(K) =   300.95  PRESS =  -876.3
 Etot   =    -52570.5997  EKtot   =     12469.2099  EPtot      =    -65039.8096
 BOND   =         1.1487  ANGLE   =         5.7845  DIHED      =         5.3183
 1-4 NB =         0.4381  1-4 EEL =         4.5886  VDWAALS    =      9480.0046
 EELEC  =    -74537.0925  EHBOND  =         0.0000  RESTRAINT  =         0.0000
 EKCMT  =      6264.0226  VIRIAL  =     10601.5001  VOLUME     =    229207.4584
                                                    Density    =         0.9072
 DV/DL  =        75.5080
 ------------------------------------------------------------------------------

      R M S  F L U C T U A T I O N S

 NSTEP =     1000   TIME(PS) =     202.000  TEMP(K) =     2.24  PRESS =   141.6
 Etot   =       119.4147  EKtot   =        92.6852  EPtot      =        97.1699
 BOND   =         0.9189  ANGLE   =         1.2399  DIHED      =         0.1137
 1-4 NB =         0.2616  1-4 EEL =         0.0778  VDWAALS    =       124.4056
 EELEC  =       150.0784  EHBOND  =         0.0000  RESTRAINT  =         0.0000
 EKCMT  =        64.3855  VIRIAL  =       685.8701  VOLUME     =       987.6139
                                                    Density    =         0.0039
 DV/DL  =         8.8686
 ------------------------------------------------------------------------------

      DV/DL, AVERAGES OVER    1000 STEPS

 NSTEP =     1000   TIME(PS) =     202.000  TEMP(K) =     2.24  PRESS =     0.0
 Etot   =         0.0000  EKtot   =         0.0000  EPtot      =        75.5080
 BOND   =         0.0000  ANGLE   =         0.0000  DIHED      =         0.0000
 1-4 NB =         0.0000  1-4 EEL =       -10.4912  VDWAALS    =         0.0000
 EELEC  =        85.9992  EHBOND  =         0.0000  RESTRAINT  =         0.0000
 EKCMT  =         0.0000  VIRIAL  =         0.0000  VOLUME     =         0.0000
                                                    Density    =         0.0000
 DV/DL  =        75.5080
 ------------------------------------------------------------------------------

      A V E R A G E S   O V E R    1000 S T E P S

 NSTEP =     2000   TIME(PS) =     204.000  TEMP(K) =   300.38  PRESS =  -751.2
 Etot   =    -52786.7591  EKtot   =     12445.8049  EPtot      =    -65232.5641
 BOND   =         0.8922  ANGLE   =         5.6729  DIHED      =         5.3477
 1-4 NB =         0.4330  1-4 EEL =         4.5903  VDWAALS    =      9526.1872
 EELEC  =    -74775.6873  EHBOND  =         0.0000  RESTRAINT  =         0.0000
 EKCMT  =      6244.5567  VIRIAL  =      9908.7803  VOLUME     =    225792.7667
                                                    Density    =         0.9209
 DV/DL  =        70.1019
 ------------------------------------------------------------------------------

      R M S  F L U C T U A T I O N S

 NSTEP =     2000   TIME(PS) =     204.000  TEMP(K) =     1.87  PRESS =   166.7
 Etot   =        88.9654  EKtot   =        77.4910  EPtot      =        70.9429
 BOND   =         0.7395  ANGLE   =         1.3160  DIHED      =         0.1509
 1-4 NB =         0.2201  1-4 EEL =         0.0624  VDWAALS    =       125.5878
 EELEC  =       135.9382  EHBOND  =         0.0000  RESTRAINT  =         0.0000
 EKCMT  =        58.6035  VIRIAL  =       801.0917  VOLUME     =       880.1700
                                                    Density    =         0.0036
 DV/DL  =        10.4459
 ------------------------------------------------------------------------------

      A V E R A G E S   O V E R    1000 S T E P S

 NSTEP =     2000   TIME(PS) =     204.000  TEMP(K) =   300.38  PRESS =  -751.2
 Etot   =    -52786.7591  EKtot   =     12445.8049  EPtot      =    -65232.5641
 BOND   =         0.8922  ANGLE   =         5.6729  DIHED      =         5.3477
 1-4 NB =         0.4330  1-4 EEL =         4.5903  VDWAALS    =      9526.1872
 EELEC  =    -74775.6873  EHBOND  =         0.0000  RESTRAINT  =         0.0000
 EKCMT  =      6244.5567  VIRIAL  =      9908.7803  VOLUME     =    225792.7667
                                                    Density    =         0.9209
 DV/DL  =        70.1019
 ------------------------------------------------------------------------------

      R M S  F L U C T U A T I O N S

 NSTEP =     2000   TIME(PS) =     204.000  TEMP(K) =     1.87  PRESS =   166.7
 Etot   =        88.9654  EKtot   =        77.4910  EPtot      =        70.9429
 BOND   =         0.7395  ANGLE   =         1.3160  DIHED      =         0.1509
 1-4 NB =         0.2201  1-4 EEL =         0.0624  VDWAALS    =       125.5878
 EELEC  =       135.9382  EHBOND  =         0.0000  RESTRAINT  =         0.0000
 EKCMT  =        58.6035  VIRIAL  =       801.0917  VOLUME     =       880.1700
                                                    Density    =         0.0036
 DV/DL  =        10.4459
 ------------------------------------------------------------------------------

      DV/DL, AVERAGES OVER    1000 STEPS

 NSTEP =     2000   TIME(PS) =     204.000  TEMP(K) =     1.87  PRESS =     0.0
 Etot   =         0.0000  EKtot   =         0.0000  EPtot      =        70.1019
 BOND   =         0.0000  ANGLE   =         0.0000  DIHED      =         0.0000
 1-4 NB =         0.0000  1-4 EEL =       -10.4949  VDWAALS    =         0.0000
 EELEC  =        80.5967  EHBOND  =         0.0000  RESTRAINT  =         0.0000
 EKCMT  =         0.0000  VIRIAL  =         0.0000  VOLUME     =         0.0000
                                                    Density    =         0.0000
 DV/DL  =        70.1019
 ------------------------------------------------------------------------------

      A V E R A G E S   O V E R    1000 S T E P S

 NSTEP =   500000   TIME(PS) =    1200.000  TEMP(K) =   300.32  PRESS =   -39.1
 Etot   =    -53852.3186  EKtot   =     12442.9811  EPtot      =    -66295.2997
 BOND   =         1.1707  ANGLE   =         5.1714  DIHED      =         5.2808
 1-4 NB =         0.4179  1-4 EEL =         4.5831  VDWAALS    =      9900.4888
 EELEC  =    -76212.4123  EHBOND  =         0.0000  RESTRAINT  =         0.0000
 EKCMT  =      6231.1147  VIRIAL  =      6409.8103  VOLUME     =    211533.6465
                                                    Density    =         0.9830
 DV/DL  =        76.5332
 ------------------------------------------------------------------------------

      R M S  F L U C T U A T I O N S

 NSTEP =   500000   TIME(PS) =    1200.000  TEMP(K) =     1.81  PRESS =   143.0
 Etot   =        72.6027  EKtot   =        75.0055  EPtot      =        75.2638
 BOND   =         0.9955  ANGLE   =         1.1204  DIHED      =         0.0867
 1-4 NB =         0.2522  1-4 EEL =         0.0792  VDWAALS    =       130.9675
 EELEC  =       145.7306  EHBOND  =         0.0000  RESTRAINT  =         0.0000
 EKCMT  =        56.6728  VIRIAL  =       660.2674  VOLUME     =        49.0356
                                                    Density    =         0.0002
 DV/DL  =         8.5849
 ------------------------------------------------------------------------------

      A V E R A G E S   O V E R    1000 S T E P S

 NSTEP =   500000   TIME(PS) =    1200.000  TEMP(K) =   300.32  PRESS =   -39.1
 Etot   =    -53852.3186  EKtot   =     12442.9811  EPtot      =    -66295.2997
 BOND   =         1.1707  ANGLE   =         5.1714  DIHED      =         5.2808
 1-4 NB =         0.4179  1-4 EEL =         4.5831  VDWAALS    =      9900.4888
 EELEC  =    -76212.4123  EHBOND  =         0.0000  RESTRAINT  =         0.0000
 EKCMT  =      6231.1147  VIRIAL  =      6409.8103  VOLUME     =    211533.6465
                                                    Density    =         0.9830
 DV/DL  =        76.5332
 ------------------------------------------------------------------------------

      R M S  F L U C T U A T I O N S

 NSTEP =   500000   TIME(PS) =    1200.000  TEMP(K) =     1.81  PRESS =   143.0
 Etot   =        72.6027  EKtot   =        75.0055  EPtot      =        75.2638
 BOND   =         0.9955  ANGLE   =         1.1204  DIHED      =         0.0867
 1-4 NB =         0.2522  1-4 EEL =         0.0792  VDWAALS    =       130.9675
 EELEC  =       145.7306  EHBOND  =         0.0000  RESTRAINT  =         0.0000
 EKCMT  =        56.6728  VIRIAL  =       660.2674  VOLUME     =        49.0356
                                                    Density    =         0.0002
 DV/DL  =         8.5849
 ------------------------------------------------------------------------------

      DV/DL, AVERAGES OVER    1000 STEPS

 NSTEP =   500000   TIME(PS) =    1200.000  TEMP(K) =     1.81  PRESS =     0.0
 Etot   =         0.0000  EKtot   =         0.0000  EPtot      =        76.5332
 BOND   =         0.0000  ANGLE   =         0.0000  DIHED      =         0.0000
 1-4 NB =         0.0000  1-4 EEL =       -10.4785  VDWAALS    =         0.0000
 EELEC  =        87.0117  EHBOND  =         0.0000  RESTRAINT  =         0.0000
 EKCMT  =         0.0000  VIRIAL  =         0.0000  VOLUME     =         0.0000
                                                    Density    =         0.0000
 DV/DL  =        76.5332
 ------------------------------------------------------------------------------

      A V E R A G E S   O V E R  500000 S T E P S

 NSTEP =   500000   TIME(PS) =    1200.000  TEMP(K) =   300.26  PRESS =    -8.9
 Etot   =    -53801.4985  EKtot   =     12440.6320  EPtot      =    -66242.1305
 BOND   =         0.9597  ANGLE   =         5.1517  DIHED      =         5.2811
 1-4 NB =         0.4224  1-4 EEL =         4.5851  VDWAALS    =      9902.1635
 EELEC  =    -76160.6940  EHBOND  =         0.0000  RESTRAINT  =         0.0000
 EKCMT  =      6241.0864  VIRIAL  =      6283.8325  VOLUME     =    211774.7587
                                                    Density    =         0.9819
 DV/DL  =        72.2961
 ------------------------------------------------------------------------------

      R M S  F L U C T U A T I O N S

 NSTEP =   500000   TIME(PS) =    1200.000  TEMP(K) =     2.07  PRESS =   147.6
 Etot   =       173.5428  EKtot   =        85.6537  EPtot      =       150.5790
 BOND   =         0.7885  ANGLE   =         1.2144  DIHED      =         0.0911
 1-4 NB =         0.2453  1-4 EEL =         0.0739  VDWAALS    =       128.7697
 EELEC  =       230.1221  EHBOND  =         0.0000  RESTRAINT  =         0.0000
 EKCMT  =        61.1377  VIRIAL  =       683.3840  VOLUME     =      1333.1520
                                                    Density    =         0.0058
 DV/DL  =        10.4692
 ------------------------------------------------------------------------------

      A V E R A G E S   O V E R  500000 S T E P S

 NSTEP =   500000   TIME(PS) =    1200.000  TEMP(K) =   300.26  PRESS =    -8.9
 Etot   =    -53801.4985  EKtot   =     12440.6320  EPtot      =    -66242.1305
 BOND   =         0.9597  ANGLE   =         5.1517  DIHED      =         5.2811
 1-4 NB =         0.4224  1-4 EEL =         4.5851  VDWAALS    =      9902.1635
 EELEC  =    -76160.6940  EHBOND  =         0.0000  RESTRAINT  =         0.0000
 EKCMT  =      6241.0864  VIRIAL  =      6283.8325  VOLUME     =    211774.7587
                                                    Density    =         0.9819
 DV/DL  =        72.2961
 ------------------------------------------------------------------------------

      R M S  F L U C T U A T I O N S

 NSTEP =   500000   TIME(PS) =    1200.000  TEMP(K) =     2.07  PRESS =   147.6
 Etot   =       173.5428  EKtot   =        85.6537  EPtot      =       150.5790
 BOND   =         0.7885  ANGLE   =         1.2144  DIHED      =         0.0911
 1-4 NB =         0.2453  1-4 EEL =         0.0739  VDWAALS    =       128.7697
 EELEC  =       230.1221  EHBOND  =         0.0000  RESTRAINT  =         0.0000
 EKCMT  =        61.1377  VIRIAL  =       683.3840  VOLUME     =      1333.1520
                                                    Density    =         0.0058
 DV/DL  =        10.4692
 ------------------------------------------------------------------------------

      DV/DL, AVERAGES OVER  500000 STEPS

 NSTEP =   500000   TIME(PS) =    1200.000  TEMP(K) =     2.07  PRESS =     0.0
 Etot   =         0.0000  EKtot   =         0.0000  EPtot      =        72.2961
 BOND   =         0.0000  ANGLE   =         0.0000  DIHED      =         0.0000
 1-4 NB =         0.0000  1-4 EEL =       -10.4831  VDWAALS    =         0.0000
 EELEC  =        82.7792  EHBOND  =         0.0000  RESTRAINT  =         0.0000
 EKCMT  =         0.0000  VIRIAL  =         0.0000  VOLUME     =         0.0000
                                                    Density    =         0.0000
 DV/DL  =        72.2961
 ------------------------------------------------------------------------------
