-------------------------------------------------------
          Amber 18 PMEMD                              2018
          -------------------------------------------------------

  [-O]verwriting output

File Assignments:

 Here is the input file:

 &cntrl
   nstlim=500000, nscm=1000,
   ntx=5, irest=1, ntpr=1000,
   tempi=300.0, temp0=300.0, ntt=3, gamma_ln=2.0,
   ntp=1, pres0=1.01325, taup=5.0,
   ntb=2, igb=0, cut=10.0,
   dt=0.002, ig=-1,
   ntc=2, ntf=2,
   iwrap=0,
   ntwr=1000, ntwx=50000, ntave=1000,
   ioutfm=1, ntwv=-1,
   ifsc = 0, icfe=1,
   clambda=0.79366,
   timask1=':1',
   timask2=':2', crgmask = ':2',
/

Note: ig = -1. Setting random seed to   615682 based on wallclock time in
      microseconds.

--------------------------------------------------------------------------------
   1.  RESOURCE   USE:
--------------------------------------------------------------------------------

 getting box info from netcdf restart file
 NATOM  =      14 NTYPES =       6 NBONH =       6 MBONA  =       6
 NTHETH =      12 MTHETA =       6 NPHIH =      24 MPHIA  =       2
 NHPARM =       0 NPARM  =       0 NNB   =      44 NRES   =       2
 NBONA  =       6 NTHETA =       6 NPHIA =       2 NUMBND =       3
 NUMANG =       4 NPTRA  =       3 NATYP =       6 NPHB   =       1
 IFBOX  =       2 NMXRS  =       7 IFCAP =       0 NEXTRA =       0
 NCOPY  =       0

     BOX TYPE: TRUNCATED OCTAHEDRON

--------------------------------------------------------------------------------
   2.  CONTROL  DATA  FOR  THE  RUN
--------------------------------------------------------------------------------

default_name

General flags:
     imin    =       0, nmropt  =       0

Nature and format of input:
     ntx     =       5, irest   =       1, ntrx    =       1

Nature and format of output:
     ntxo    =       2, ntpr    =    1000, ntrx    =       1, ntwr    =    1000
     iwrap   =       0, ntwx    =   50000, ntwv    =      -1, ntwe    =       0
     ioutfm  =       1, ntwprt  =       0, idecomp =       0, rbornstat=      0

Potential function:
     ntf     =       2, ntb     =       2, igb     =       0, nsnb    =      25
     ipol    =       0, gbsa    =       0, iesp    =       0
     dielc   =   1.00000, cut     =  10.00000, intdiel =   1.00000

Frozen or restrained atoms:
     ibelly  =       0, ntr     =       0

Molecular dynamics:
     nstlim  =    500000, nscm    =      1000, nrespa  =         1
     t       =   0.00000, dt      =   0.00200, vlimit  =  -1.00000

Langevin dynamics temperature regulation:
     ig      =  615682
     temp0   = 300.00000, tempi   = 300.00000, gamma_ln=   2.00000

Pressure regulation:
     ntp     =       1
     pres0   =   1.01325, comp    =  44.60000, taup    =   5.00000

SHAKE:
     ntc     =       2, jfastw  =       0
     tol     =   0.00001

Free energy options:
     icfe    =       1, ifsc    =       0, klambda =       1
     clambda =  0.7937, scalpha =  0.5000, scbeta  = 12.0000
     sceeorder =       2
     dynlmb =  0.0000 logdvdl =       0

Ewald parameters:
     verbose =       0, ew_type =       0, nbflag  =       1, use_pme =       1
     vdwmeth =       1, eedmeth =       1, netfrc  =       1
     Box X =   66.953   Box Y =   66.953   Box Z =   66.953
     Alpha =  109.471   Beta  =  109.471   Gamma =  109.471
     NFFT1 =   64       NFFT2 =   64       NFFT3 =   64
     Cutoff=   10.000   Tol   =0.100E-04
     Ewald Coefficient =  0.27511
     Interpolation order =    4
     TI Mask 1 :1; matches      7 atoms
     TI Mask 2 :2; matches      7 atoms
     TI region 1:       7 atoms
     TI region 2:       7 atoms
Removing charge of      -0.8188 from atom       8
Removing charge of      -0.8188 from atom       9
Removing charge of       0.8054 from atom      10
Removing charge of      -0.1021 from atom      11
Removing charge of      -0.0219 from atom      12
Removing charge of      -0.0219 from atom      13
Removing charge of      -0.0219 from atom      14
Total charge of  -0.99999900 removed from       7 atoms
     Checking for mismatched coordinates.

--------------------------------------------------------------------------------
   3.  ATOMIC COORDINATES AND VELOCITIES
--------------------------------------------------------------------------------

default_name
 begin time read from input coords =   200.000 ps

 Number of triangulated 3-point waters found:        0

     Sum of charges for TI region  1 =  -0.99999900
     Assuming uniform neutralizing plasma

     Sum of charges for TI region  2 =   0.00000000
     Forcing neutrality...

--------------------------------------------------------------------------------
   4.  RESULTS
 NSTEP =     1000   TIME(PS) =     202.000  TEMP(K) =   238.14  PRESS =     1.3
 Etot   =        16.0510  EKtot   =         4.2591  EPtot      =        11.7919
 BOND   =         0.9538  ANGLE   =         4.1047  DIHED      =         5.5747
 1-4 NB =         0.5616  1-4 EEL =         2.2087  VDWAALS    =        -0.0001
 EELEC  =        -1.6116  EHBOND  =         0.0000  RESTRAINT  =         0.0000
 EKCMT  =         2.3722  VIRIAL  =        -4.2980  VOLUME     =    231034.9643
                                                    Density    =         0.0004
 DV/DL  =        -2.8938
 ------------------------------------------------------------------------------

      A V E R A G E S   O V E R    1000 S T E P S

 NSTEP =     1000   TIME(PS) =     202.000  TEMP(K) =   255.81  PRESS =     0.5
 Etot   =        16.8835  EKtot   =         4.5751  EPtot      =        12.3085
 BOND   =         1.0571  ANGLE   =         4.8859  DIHED      =         5.3125
 1-4 NB =         0.4936  1-4 EEL =         2.1704  VDWAALS    =        -0.0001
 EELEC  =        -1.6109  EHBOND  =         0.0000  RESTRAINT  =         0.0000
 EKCMT  =         1.4235  VIRIAL  =        -0.9484  VOLUME     =    231036.7318
                                                    Density    =         0.0004
 DV/DL  =        -2.7118
 ------------------------------------------------------------------------------

      R M S  F L U C T U A T I O N S

 NSTEP =     1000   TIME(PS) =     202.000  TEMP(K) =    68.30  PRESS =     0.7
 Etot   =         1.1396  EKtot   =         1.2216  EPtot      =         1.1663
 BOND   =         0.7604  ANGLE   =         0.8510  DIHED      =         0.1065
 1-4 NB =         0.3487  1-4 EEL =         0.0496  VDWAALS    =         0.0000
 EELEC  =         0.0005  EHBOND  =         0.0000  RESTRAINT  =         0.0000
 EKCMT  =         1.2033  VIRIAL  =         2.8220  VOLUME     =         0.9029
                                                    Density    =         0.0000
 DV/DL  =         0.2402
 ------------------------------------------------------------------------------

      A V E R A G E S   O V E R    1000 S T E P S

 NSTEP =     1000   TIME(PS) =     202.000  TEMP(K) =   255.81  PRESS =     0.5
 Etot   =        16.8835  EKtot   =         4.5751  EPtot      =        12.3085
 BOND   =         1.0571  ANGLE   =         4.8859  DIHED      =         5.3125
 1-4 NB =         0.4936  1-4 EEL =         2.1704  VDWAALS    =        -0.0001
 EELEC  =        -1.6109  EHBOND  =         0.0000  RESTRAINT  =         0.0000
 EKCMT  =         1.4235  VIRIAL  =        -0.9484  VOLUME     =    231036.7318
                                                    Density    =         0.0004
 DV/DL  =        -2.7118
 ------------------------------------------------------------------------------

      R M S  F L U C T U A T I O N S

 NSTEP =     1000   TIME(PS) =     202.000  TEMP(K) =    68.30  PRESS =     0.7
 Etot   =         1.1396  EKtot   =         1.2216  EPtot      =         1.1663
 BOND   =         0.7604  ANGLE   =         0.8510  DIHED      =         0.1065
 1-4 NB =         0.3487  1-4 EEL =         0.0496  VDWAALS    =         0.0000
 EELEC  =         0.0005  EHBOND  =         0.0000  RESTRAINT  =         0.0000
 EKCMT  =         1.2033  VIRIAL  =         2.8220  VOLUME     =         0.9029
                                                    Density    =         0.0000
 DV/DL  =         0.2402
 ------------------------------------------------------------------------------

      DV/DL, AVERAGES OVER    1000 STEPS

 NSTEP =     1000   TIME(PS) =     202.000  TEMP(K) =    68.30  PRESS =     0.0
 Etot   =         0.0000  EKtot   =         0.0000  EPtot      =        -2.7118
 BOND   =         0.0000  ANGLE   =         0.0000  DIHED      =         0.0000
 1-4 NB =         0.0000  1-4 EEL =       -10.5186  VDWAALS    =         0.0000
 EELEC  =         7.8069  EHBOND  =         0.0000  RESTRAINT  =         0.0000
 EKCMT  =         0.0000  VIRIAL  =         0.0000  VOLUME     =         0.0000
                                                    Density    =         0.0000
 DV/DL  =        -2.7118
 ------------------------------------------------------------------------------

      A V E R A G E S   O V E R    1000 S T E P S

 NSTEP =     2000   TIME(PS) =     204.000  TEMP(K) =   347.75  PRESS =     1.0
 Etot   =        19.0941  EKtot   =         6.2194  EPtot      =        12.8747
 BOND   =         1.4547  ANGLE   =         5.0396  DIHED      =         5.3658
 1-4 NB =         0.4547  1-4 EEL =         2.1712  VDWAALS    =        -0.0001
 EELEC  =        -1.6112  EHBOND  =         0.0000  RESTRAINT  =         0.0000
 EKCMT  =         2.9662  VIRIAL  =        -2.0467  VOLUME     =    231035.4147
                                                    Density    =         0.0004
 DV/DL  =        -2.7138
 ------------------------------------------------------------------------------

      R M S  F L U C T U A T I O N S

 NSTEP =     2000   TIME(PS) =     204.000  TEMP(K) =    85.32  PRESS =     0.5
 Etot   =         1.8805  EKtot   =         1.5259  EPtot      =         1.6870
 BOND   =         0.9972  ANGLE   =         1.1150  DIHED      =         0.1670
 1-4 NB =         0.2252  1-4 EEL =         0.0322  VDWAALS    =         0.0000
 EELEC  =         0.0006  EHBOND  =         0.0000  RESTRAINT  =         0.0000
 EKCMT  =         1.1351  VIRIAL  =         2.2464  VOLUME     =         0.2151
                                                    Density    =         0.0000
 DV/DL  =         0.1560
 ------------------------------------------------------------------------------

      A V E R A G E S   O V E R    1000 S T E P S

 NSTEP =     2000   TIME(PS) =     204.000  TEMP(K) =   347.75  PRESS =     1.0
 Etot   =        19.0941  EKtot   =         6.2194  EPtot      =        12.8747
 BOND   =         1.4547  ANGLE   =         5.0396  DIHED      =         5.3658
 1-4 NB =         0.4547  1-4 EEL =         2.1712  VDWAALS    =        -0.0001
 EELEC  =        -1.6112  EHBOND  =         0.0000  RESTRAINT  =         0.0000
 EKCMT  =         2.9662  VIRIAL  =        -2.0467  VOLUME     =    231035.4147
                                                    Density    =         0.0004
 DV/DL  =        -2.7138
 ------------------------------------------------------------------------------

      R M S  F L U C T U A T I O N S

 NSTEP =     2000   TIME(PS) =     204.000  TEMP(K) =    85.32  PRESS =     0.5
 Etot   =         1.8805  EKtot   =         1.5259  EPtot      =         1.6870
 BOND   =         0.9972  ANGLE   =         1.1150  DIHED      =         0.1670
 1-4 NB =         0.2252  1-4 EEL =         0.0322  VDWAALS    =         0.0000
 EELEC  =         0.0006  EHBOND  =         0.0000  RESTRAINT  =         0.0000
 EKCMT  =         1.1351  VIRIAL  =         2.2464  VOLUME     =         0.2151
                                                    Density    =         0.0000
 DV/DL  =         0.1560
 ------------------------------------------------------------------------------

      DV/DL, AVERAGES OVER    1000 STEPS

 NSTEP =     2000   TIME(PS) =     204.000  TEMP(K) =    85.32  PRESS =     0.0
 Etot   =         0.0000  EKtot   =         0.0000  EPtot      =        -2.7138
 BOND   =         0.0000  ANGLE   =         0.0000  DIHED      =         0.0000
 1-4 NB =         0.0000  1-4 EEL =       -10.5224  VDWAALS    =         0.0000
 EELEC  =         7.8086  EHBOND  =         0.0000  RESTRAINT  =         0.0000
 EKCMT  =         0.0000  VIRIAL  =         0.0000  VOLUME     =         0.0000
                                                    Density    =         0.0000
 DV/DL  =        -2.7138
 ------------------------------------------------------------------------------

      A V E R A G E S   O V E R    1000 S T E P S

 NSTEP =   500000   TIME(PS) =    1200.000  TEMP(K) =   252.08  PRESS =     1.0
 Etot   =        16.6323  EKtot   =         4.5084  EPtot      =        12.1239
 BOND   =         0.9234  ANGLE   =         4.8945  DIHED      =         5.2678
 1-4 NB =         0.4809  1-4 EEL =         2.1691  VDWAALS    =        -0.0001
 EELEC  =        -1.6117  EHBOND  =         0.0000  RESTRAINT  =         0.0000
 EKCMT  =         1.4621  VIRIAL  =        -3.2983  VOLUME     =    230683.7340
                                                    Density    =         0.0004
 DV/DL  =        -2.7011
 ------------------------------------------------------------------------------

      R M S  F L U C T U A T I O N S

 NSTEP =   500000   TIME(PS) =    1200.000  TEMP(K) =   101.36  PRESS =     0.5
 Etot   =         2.6179  EKtot   =         1.8127  EPtot      =         1.4445
 BOND   =         0.6539  ANGLE   =         1.1886  DIHED      =         0.0684
 1-4 NB =         0.3218  1-4 EEL =         0.0425  VDWAALS    =         0.0000
 EELEC  =         0.0005  EHBOND  =         0.0000  RESTRAINT  =         0.0000
 EKCMT  =         0.8476  VIRIAL  =         2.0426  VOLUME     =         0.0000
                                                    Density    =         0.0000
 DV/DL  =         0.2061
 ------------------------------------------------------------------------------

      A V E R A G E S   O V E R    1000 S T E P S

 NSTEP =   500000   TIME(PS) =    1200.000  TEMP(K) =   252.08  PRESS =     1.0
 Etot   =        16.6323  EKtot   =         4.5084  EPtot      =        12.1239
 BOND   =         0.9234  ANGLE   =         4.8945  DIHED      =         5.2678
 1-4 NB =         0.4809  1-4 EEL =         2.1691  VDWAALS    =        -0.0001
 EELEC  =        -1.6117  EHBOND  =         0.0000  RESTRAINT  =         0.0000
 EKCMT  =         1.4621  VIRIAL  =        -3.2983  VOLUME     =    230683.7340
                                                    Density    =         0.0004
 DV/DL  =        -2.7011
 ------------------------------------------------------------------------------

      R M S  F L U C T U A T I O N S

 NSTEP =   500000   TIME(PS) =    1200.000  TEMP(K) =   101.36  PRESS =     0.5
 Etot   =         2.6179  EKtot   =         1.8127  EPtot      =         1.4445
 BOND   =         0.6539  ANGLE   =         1.1886  DIHED      =         0.0684
 1-4 NB =         0.3218  1-4 EEL =         0.0425  VDWAALS    =         0.0000
 EELEC  =         0.0005  EHBOND  =         0.0000  RESTRAINT  =         0.0000
 EKCMT  =         0.8476  VIRIAL  =         2.0426  VOLUME     =         0.0000
                                                    Density    =         0.0000
 DV/DL  =         0.2061
 ------------------------------------------------------------------------------

      DV/DL, AVERAGES OVER    1000 STEPS

 NSTEP =   500000   TIME(PS) =    1200.000  TEMP(K) =   101.36  PRESS =     0.0
 Etot   =         0.0000  EKtot   =         0.0000  EPtot      =        -2.7011
 BOND   =         0.0000  ANGLE   =         0.0000  DIHED      =         0.0000
 1-4 NB =         0.0000  1-4 EEL =       -10.5122  VDWAALS    =         0.0000
 EELEC  =         7.8111  EHBOND  =         0.0000  RESTRAINT  =         0.0000
 EKCMT  =         0.0000  VIRIAL  =         0.0000  VOLUME     =         0.0000
                                                    Density    =         0.0000
 DV/DL  =        -2.7011
 ------------------------------------------------------------------------------

      A V E R A G E S   O V E R  500000 S T E P S

 NSTEP =   500000   TIME(PS) =    1200.000  TEMP(K) =   300.47  PRESS =     0.8
 Etot   =        17.7949  EKtot   =         5.3738  EPtot      =        12.4211
 BOND   =         0.9819  ANGLE   =         5.1346  DIHED      =         5.2817
 1-4 NB =         0.4656  1-4 EEL =         2.1689  VDWAALS    =        -0.0001
 EELEC  =        -1.6114  EHBOND  =         0.0000  RESTRAINT  =         0.0000
 EKCMT  =         1.8185  VIRIAL  =        -2.3769  VOLUME     =    230857.4120
                                                    Density    =         0.0004
 DV/DL  =        -2.7016
 ------------------------------------------------------------------------------

      R M S  F L U C T U A T I O N S

 NSTEP =   500000   TIME(PS) =    1200.000  TEMP(K) =    99.73  PRESS =     0.6
 Etot   =         2.3418  EKtot   =         1.7836  EPtot      =         1.5202
 BOND   =         0.8051  ANGLE   =         1.1882  DIHED      =         0.0911
 1-4 NB =         0.2753  1-4 EEL =         0.0361  VDWAALS    =         0.0000
 EELEC  =         0.0006  EHBOND  =         0.0000  RESTRAINT  =         0.0000
 EKCMT  =         1.4829  VIRIAL  =         2.4844  VOLUME     =       106.6322
                                                    Density    =         0.0000
 DV/DL  =         0.1748
 ------------------------------------------------------------------------------

      A V E R A G E S   O V E R  500000 S T E P S

 NSTEP =   500000   TIME(PS) =    1200.000  TEMP(K) =   300.47  PRESS =     0.8
 Etot   =        17.7949  EKtot   =         5.3738  EPtot      =        12.4211
 BOND   =         0.9819  ANGLE   =         5.1346  DIHED      =         5.2817
 1-4 NB =         0.4656  1-4 EEL =         2.1689  VDWAALS    =        -0.0001
 EELEC  =        -1.6114  EHBOND  =         0.0000  RESTRAINT  =         0.0000
 EKCMT  =         1.8185  VIRIAL  =        -2.3769  VOLUME     =    230857.4120
                                                    Density    =         0.0004
 DV/DL  =        -2.7016
 ------------------------------------------------------------------------------

      R M S  F L U C T U A T I O N S

 NSTEP =   500000   TIME(PS) =    1200.000  TEMP(K) =    99.73  PRESS =     0.6
 Etot   =         2.3418  EKtot   =         1.7836  EPtot      =         1.5202
 BOND   =         0.8051  ANGLE   =         1.1882  DIHED      =         0.0911
 1-4 NB =         0.2753  1-4 EEL =         0.0361  VDWAALS    =         0.0000
 EELEC  =         0.0006  EHBOND  =         0.0000  RESTRAINT  =         0.0000
 EKCMT  =         1.4829  VIRIAL  =         2.4844  VOLUME     =       106.6322
                                                    Density    =         0.0000
 DV/DL  =         0.1748
 ------------------------------------------------------------------------------

      DV/DL, AVERAGES OVER  500000 STEPS

 NSTEP =   500000   TIME(PS) =    1200.000  TEMP(K) =    99.73  PRESS =     0.0
 Etot   =         0.0000  EKtot   =         0.0000  EPtot      =        -2.7016
 BOND   =         0.0000  ANGLE   =         0.0000  DIHED      =         0.0000
 1-4 NB =         0.0000  1-4 EEL =       -10.5113  VDWAALS    =         0.0000
 EELEC  =         7.8097  EHBOND  =         0.0000  RESTRAINT  =         0.0000
 EKCMT  =         0.0000  VIRIAL  =         0.0000  VOLUME     =         0.0000
                                                    Density    =         0.0000
 DV/DL  =        -2.7016
 ------------------------------------------------------------------------------
