-------------------------------------------------------
          Amber 18 PMEMD                              2018
          -------------------------------------------------------

  [-O]verwriting output

File Assignments:

 Here is the input file:

 &cntrl
   nstlim=500000, nscm=1000,
   ntx=5, irest=1, ntpr=1000,
   tempi=300.0, temp0=300.0, ntt=3, gamma_ln=2.0,
   ntp=1, pres0=1.01325, taup=5.0,
   ntb=2, igb=0, cut=10.0,
   dt=0.002, ig=-1,
   ntc=2, ntf=2,
   iwrap=0,
   ntwr=1000, ntwx=50000, ntave=1000,
   ioutfm=1, ntwv=-1,
   ifsc = 0, icfe=1,
   clambda=0.00922,
   timask1=':1',
   timask2=':2', crgmask = ':2',
/

Note: ig = -1. Setting random seed to   575285 based on wallclock time in
      microseconds.

--------------------------------------------------------------------------------
   1.  RESOURCE   USE:
--------------------------------------------------------------------------------

 getting box info from netcdf restart file
 NATOM  =   20855 NTYPES =       6 NBONH =   20847 MBONA  =       6
 NTHETH =      12 MTHETA =       6 NPHIH =      24 MPHIA  =       2
 NHPARM =       0 NPARM  =       0 NNB   =   27832 NRES   =    6949
 NBONA  =       6 NTHETA =       6 NPHIA =       2 NUMBND =       5
 NUMANG =       4 NPTRA  =       3 NATYP =       6 NPHB   =       1
 IFBOX  =       2 NMXRS  =       7 IFCAP =       0 NEXTRA =       0
 NCOPY  =       0

     BOX TYPE: TRUNCATED OCTAHEDRON

--------------------------------------------------------------------------------
   2.  CONTROL  DATA  FOR  THE  RUN
--------------------------------------------------------------------------------

default_name

General flags:
     imin    =       0, nmropt  =       0

Nature and format of input:
     ntx     =       5, irest   =       1, ntrx    =       1

Nature and format of output:
     ntxo    =       2, ntpr    =    1000, ntrx    =       1, ntwr    =    1000
     iwrap   =       0, ntwx    =   50000, ntwv    =      -1, ntwe    =       0
     ioutfm  =       1, ntwprt  =       0, idecomp =       0, rbornstat=      0

Potential function:
     ntf     =       2, ntb     =       2, igb     =       0, nsnb    =      25
     ipol    =       0, gbsa    =       0, iesp    =       0
     dielc   =   1.00000, cut     =  10.00000, intdiel =   1.00000

Frozen or restrained atoms:
     ibelly  =       0, ntr     =       0

Molecular dynamics:
     nstlim  =    500000, nscm    =      1000, nrespa  =         1
     t       =   0.00000, dt      =   0.00200, vlimit  =  -1.00000

Langevin dynamics temperature regulation:
     ig      =  575285
     temp0   = 300.00000, tempi   = 300.00000, gamma_ln=   2.00000

Pressure regulation:
     ntp     =       1
     pres0   =   1.01325, comp    =  44.60000, taup    =   5.00000

SHAKE:
     ntc     =       2, jfastw  =       0
     tol     =   0.00001

Free energy options:
     icfe    =       1, ifsc    =       0, klambda =       1
     clambda =  0.0092, scalpha =  0.5000, scbeta  = 12.0000
     sceeorder =       2
     dynlmb =  0.0000 logdvdl =       0

Ewald parameters:
     verbose =       0, ew_type =       0, nbflag  =       1, use_pme =       1
     vdwmeth =       1, eedmeth =       1, netfrc  =       1
     Box X =   66.953   Box Y =   66.953   Box Z =   66.953
     Alpha =  109.471   Beta  =  109.471   Gamma =  109.471
     NFFT1 =   64       NFFT2 =   64       NFFT3 =   64
     Cutoff=   10.000   Tol   =0.100E-04
     Ewald Coefficient =  0.27511
     Interpolation order =    4
     TI Mask 1 :1; matches      7 atoms
     TI Mask 2 :2; matches      7 atoms
     TI region 1:   20848 atoms
     TI region 2:   20848 atoms
Removing charge of      -0.8188 from atom       8
Removing charge of      -0.8188 from atom       9
Removing charge of       0.8054 from atom      10
Removing charge of      -0.1021 from atom      11
Removing charge of      -0.0219 from atom      12
Removing charge of      -0.0219 from atom      13
Removing charge of      -0.0219 from atom      14
Total charge of  -0.99999900 removed from       7 atoms
     Checking for mismatched coordinates.

--------------------------------------------------------------------------------
   3.  ATOMIC COORDINATES AND VELOCITIES
--------------------------------------------------------------------------------

default_name
 begin time read from input coords =   200.000 ps

 Number of triangulated 3-point waters found:     6947

     Sum of charges for TI region  1 =  -0.99999900
     Assuming uniform neutralizing plasma

     Sum of charges for TI region  2 =   0.00000000
     Forcing neutrality...

--------------------------------------------------------------------------------
   4.  RESULTS
 NSTEP =     1000   TIME(PS) =     202.000  TEMP(K) =   301.81  PRESS =  -592.7
 Etot   =    -52886.3005  EKtot   =     12504.7397  EPtot      =    -65391.0402
 BOND   =         0.7032  ANGLE   =         4.1872  DIHED      =         5.2192
 1-4 NB =         0.2932  1-4 EEL =        10.3669  VDWAALS    =      9665.1314
 EELEC  =    -75076.9413  EHBOND  =         0.0000  RESTRAINT  =         0.0000
 EKCMT  =      6207.1949  VIRIAL  =      9127.4336  VOLUME     =    228212.7571
                                                    Density    =         0.9111
 DV/DL  =       160.0953
 ------------------------------------------------------------------------------

      A V E R A G E S   O V E R    1000 S T E P S

 NSTEP =     1000   TIME(PS) =     202.000  TEMP(K) =   300.71  PRESS =  -689.1
 Etot   =    -52840.9702  EKtot   =     12459.3966  EPtot      =    -65300.3668
 BOND   =         0.8178  ANGLE   =         5.8391  DIHED      =         5.2897
 1-4 NB =         0.3460  1-4 EEL =        10.3429  VDWAALS    =      9598.0814
 EELEC  =    -74921.0837  EHBOND  =         0.0000  RESTRAINT  =         0.0000
 EKCMT  =      6244.9705  VIRIAL  =      9661.1949  VOLUME     =    229614.3528
                                                    Density    =         0.9056
 DV/DL  =       171.7742
 ------------------------------------------------------------------------------

      R M S  F L U C T U A T I O N S

 NSTEP =     1000   TIME(PS) =     202.000  TEMP(K) =     1.89  PRESS =    99.7
 Etot   =        62.7673  EKtot   =        78.5124  EPtot      =        80.5709
 BOND   =         0.6249  ANGLE   =         1.3575  DIHED      =         0.0998
 1-4 NB =         0.1857  1-4 EEL =         0.1521  VDWAALS    =        97.3741
 EELEC  =       122.0894  EHBOND  =         0.0000  RESTRAINT  =         0.0000
 EKCMT  =        53.0955  VIRIAL  =       501.8387  VOLUME     =       823.9620
                                                    Density    =         0.0032
 DV/DL  =         9.2031
 ------------------------------------------------------------------------------

      A V E R A G E S   O V E R    1000 S T E P S

 NSTEP =     1000   TIME(PS) =     202.000  TEMP(K) =   300.71  PRESS =  -689.1
 Etot   =    -52840.9702  EKtot   =     12459.3966  EPtot      =    -65300.3668
 BOND   =         0.8178  ANGLE   =         5.8391  DIHED      =         5.2897
 1-4 NB =         0.3460  1-4 EEL =        10.3429  VDWAALS    =      9598.0814
 EELEC  =    -74921.0837  EHBOND  =         0.0000  RESTRAINT  =         0.0000
 EKCMT  =      6244.9705  VIRIAL  =      9661.1949  VOLUME     =    229614.3528
                                                    Density    =         0.9056
 DV/DL  =       171.7742
 ------------------------------------------------------------------------------

      R M S  F L U C T U A T I O N S

 NSTEP =     1000   TIME(PS) =     202.000  TEMP(K) =     1.89  PRESS =    99.7
 Etot   =        62.7673  EKtot   =        78.5124  EPtot      =        80.5709
 BOND   =         0.6249  ANGLE   =         1.3575  DIHED      =         0.0998
 1-4 NB =         0.1857  1-4 EEL =         0.1521  VDWAALS    =        97.3741
 EELEC  =       122.0894  EHBOND  =         0.0000  RESTRAINT  =         0.0000
 EKCMT  =        53.0955  VIRIAL  =       501.8387  VOLUME     =       823.9620
                                                    Density    =         0.0032
 DV/DL  =         9.2031
 ------------------------------------------------------------------------------

      DV/DL, AVERAGES OVER    1000 STEPS

 NSTEP =     1000   TIME(PS) =     202.000  TEMP(K) =     1.89  PRESS =     0.0
 Etot   =         0.0000  EKtot   =         0.0000  EPtot      =       171.7742
 BOND   =         0.0000  ANGLE   =         0.0000  DIHED      =         0.0000
 1-4 NB =         0.0000  1-4 EEL =       -10.4392  VDWAALS    =         0.0000
 EELEC  =       182.2133  EHBOND  =         0.0000  RESTRAINT  =         0.0000
 EKCMT  =         0.0000  VIRIAL  =         0.0000  VOLUME     =         0.0000
                                                    Density    =         0.0000
 DV/DL  =       171.7742
 ------------------------------------------------------------------------------

      A V E R A G E S   O V E R    1000 S T E P S

 NSTEP =     2000   TIME(PS) =     204.000  TEMP(K) =   301.59  PRESS =  -595.7
 Etot   =    -52891.1164  EKtot   =     12495.8674  EPtot      =    -65386.9838
 BOND   =         0.8945  ANGLE   =         5.1997  DIHED      =         5.2501
 1-4 NB =         0.3255  1-4 EEL =        10.3183  VDWAALS    =      9621.3623
 EELEC  =    -75030.3342  EHBOND  =         0.0000  RESTRAINT  =         0.0000
 EKCMT  =      6261.7306  VIRIAL  =      9181.6043  VOLUME     =    226938.7603
                                                    Density    =         0.9162
 DV/DL  =       167.9743
 ------------------------------------------------------------------------------

      R M S  F L U C T U A T I O N S

 NSTEP =     2000   TIME(PS) =     204.000  TEMP(K) =     1.94  PRESS =   110.7
 Etot   =        75.8750  EKtot   =        80.2997  EPtot      =        72.9655
 BOND   =         0.6366  ANGLE   =         1.2229  DIHED      =         0.0576
 1-4 NB =         0.1831  1-4 EEL =         0.1511  VDWAALS    =        98.2474
 EELEC  =       126.4156  EHBOND  =         0.0000  RESTRAINT  =         0.0000
 EKCMT  =        51.5228  VIRIAL  =       535.0569  VOLUME     =       716.2691
                                                    Density    =         0.0029
 DV/DL  =        10.9978
 ------------------------------------------------------------------------------

      A V E R A G E S   O V E R    1000 S T E P S

 NSTEP =     2000   TIME(PS) =     204.000  TEMP(K) =   301.59  PRESS =  -595.7
 Etot   =    -52891.1164  EKtot   =     12495.8674  EPtot      =    -65386.9838
 BOND   =         0.8945  ANGLE   =         5.1997  DIHED      =         5.2501
 1-4 NB =         0.3255  1-4 EEL =        10.3183  VDWAALS    =      9621.3623
 EELEC  =    -75030.3342  EHBOND  =         0.0000  RESTRAINT  =         0.0000
 EKCMT  =      6261.7306  VIRIAL  =      9181.6043  VOLUME     =    226938.7603
                                                    Density    =         0.9162
 DV/DL  =       167.9743
 ------------------------------------------------------------------------------

      R M S  F L U C T U A T I O N S

 NSTEP =     2000   TIME(PS) =     204.000  TEMP(K) =     1.94  PRESS =   110.7
 Etot   =        75.8750  EKtot   =        80.2997  EPtot      =        72.9655
 BOND   =         0.6366  ANGLE   =         1.2229  DIHED      =         0.0576
 1-4 NB =         0.1831  1-4 EEL =         0.1511  VDWAALS    =        98.2474
 EELEC  =       126.4156  EHBOND  =         0.0000  RESTRAINT  =         0.0000
 EKCMT  =        51.5228  VIRIAL  =       535.0569  VOLUME     =       716.2691
                                                    Density    =         0.0029
 DV/DL  =        10.9978
 ------------------------------------------------------------------------------

      DV/DL, AVERAGES OVER    1000 STEPS

 NSTEP =     2000   TIME(PS) =     204.000  TEMP(K) =     1.94  PRESS =     0.0
 Etot   =         0.0000  EKtot   =         0.0000  EPtot      =       167.9743
 BOND   =         0.0000  ANGLE   =         0.0000  DIHED      =         0.0000
 1-4 NB =         0.0000  1-4 EEL =       -10.4144  VDWAALS    =         0.0000
 EELEC  =       178.3887  EHBOND  =         0.0000  RESTRAINT  =         0.0000
 EKCMT  =         0.0000  VIRIAL  =         0.0000  VOLUME     =         0.0000
                                                    Density    =         0.0000
 DV/DL  =       167.9743
 ------------------------------------------------------------------------------

      A V E R A G E S   O V E R    1000 S T E P S

 NSTEP =   500000   TIME(PS) =    1200.000  TEMP(K) =   299.57  PRESS =    38.1
 Etot   =    -53916.3324  EKtot   =     12411.9216  EPtot      =    -66328.2540
 BOND   =         0.7582  ANGLE   =         5.5507  DIHED      =         5.3134
 1-4 NB =         0.3426  1-4 EEL =        10.3401  VDWAALS    =      9970.0688
 EELEC  =    -76320.6278  EHBOND  =         0.0000  RESTRAINT  =         0.0000
 EKCMT  =      6256.1933  VIRIAL  =      6081.8848  VOLUME     =    211794.4760
                                                    Density    =         0.9818
 DV/DL  =       168.3091
 ------------------------------------------------------------------------------

      R M S  F L U C T U A T I O N S

 NSTEP =   500000   TIME(PS) =    1200.000  TEMP(K) =     1.88  PRESS =    97.3
 Etot   =        78.1740  EKtot   =        77.6925  EPtot      =        75.6899
 BOND   =         0.6370  ANGLE   =         1.1883  DIHED      =         0.1269
 1-4 NB =         0.1797  1-4 EEL =         0.1370  VDWAALS    =        88.8027
 EELEC  =       114.9060  EHBOND  =         0.0000  RESTRAINT  =         0.0000
 EKCMT  =        58.7301  VIRIAL  =       456.2436  VOLUME     =        37.2505
                                                    Density    =         0.0002
 DV/DL  =        10.7011
 ------------------------------------------------------------------------------

      A V E R A G E S   O V E R    1000 S T E P S

 NSTEP =   500000   TIME(PS) =    1200.000  TEMP(K) =   299.57  PRESS =    38.1
 Etot   =    -53916.3324  EKtot   =     12411.9216  EPtot      =    -66328.2540
 BOND   =         0.7582  ANGLE   =         5.5507  DIHED      =         5.3134
 1-4 NB =         0.3426  1-4 EEL =        10.3401  VDWAALS    =      9970.0688
 EELEC  =    -76320.6278  EHBOND  =         0.0000  RESTRAINT  =         0.0000
 EKCMT  =      6256.1933  VIRIAL  =      6081.8848  VOLUME     =    211794.4760
                                                    Density    =         0.9818
 DV/DL  =       168.3091
 ------------------------------------------------------------------------------

      R M S  F L U C T U A T I O N S

 NSTEP =   500000   TIME(PS) =    1200.000  TEMP(K) =     1.88  PRESS =    97.3
 Etot   =        78.1740  EKtot   =        77.6925  EPtot      =        75.6899
 BOND   =         0.6370  ANGLE   =         1.1883  DIHED      =         0.1269
 1-4 NB =         0.1797  1-4 EEL =         0.1370  VDWAALS    =        88.8027
 EELEC  =       114.9060  EHBOND  =         0.0000  RESTRAINT  =         0.0000
 EKCMT  =        58.7301  VIRIAL  =       456.2436  VOLUME     =        37.2505
                                                    Density    =         0.0002
 DV/DL  =        10.7011
 ------------------------------------------------------------------------------

      DV/DL, AVERAGES OVER    1000 STEPS

 NSTEP =   500000   TIME(PS) =    1200.000  TEMP(K) =     1.88  PRESS =     0.0
 Etot   =         0.0000  EKtot   =         0.0000  EPtot      =       168.3091
 BOND   =         0.0000  ANGLE   =         0.0000  DIHED      =         0.0000
 1-4 NB =         0.0000  1-4 EEL =       -10.4363  VDWAALS    =         0.0000
 EELEC  =       178.7454  EHBOND  =         0.0000  RESTRAINT  =         0.0000
 EKCMT  =         0.0000  VIRIAL  =         0.0000  VOLUME     =         0.0000
                                                    Density    =         0.0000
 DV/DL  =       168.3091
 ------------------------------------------------------------------------------

      A V E R A G E S   O V E R  500000 S T E P S

 NSTEP =   500000   TIME(PS) =    1200.000  TEMP(K) =   300.06  PRESS =    -8.7
 Etot   =    -53910.6354  EKtot   =     12432.4802  EPtot      =    -66343.1156
 BOND   =         0.9634  ANGLE   =         5.5290  DIHED      =         5.2887
 1-4 NB =         0.3397  1-4 EEL =        10.3299  VDWAALS    =      9914.0952
 EELEC  =    -76279.6614  EHBOND  =         0.0000  RESTRAINT  =         0.0000
 EKCMT  =      6234.6255  VIRIAL  =      6276.4957  VOLUME     =    211621.6256
                                                    Density    =         0.9826
 DV/DL  =       169.4393
 ------------------------------------------------------------------------------

      R M S  F L U C T U A T I O N S

 NSTEP =   500000   TIME(PS) =    1200.000  TEMP(K) =     2.06  PRESS =   142.9
 Etot   =       173.2088  EKtot   =        85.5281  EPtot      =       149.2785
 BOND   =         0.7817  ANGLE   =         1.3853  DIHED      =         0.0999
 1-4 NB =         0.1996  1-4 EEL =         0.1614  VDWAALS    =       125.2819
 EELEC  =       223.6478  EHBOND  =         0.0000  RESTRAINT  =         0.0000
 EKCMT  =        60.3938  VIRIAL  =       660.5705  VOLUME     =      1508.4659
                                                    Density    =         0.0066
 DV/DL  =        10.0790
 ------------------------------------------------------------------------------

      A V E R A G E S   O V E R  500000 S T E P S

 NSTEP =   500000   TIME(PS) =    1200.000  TEMP(K) =   300.06  PRESS =    -8.7
 Etot   =    -53910.6354  EKtot   =     12432.4802  EPtot      =    -66343.1156
 BOND   =         0.9634  ANGLE   =         5.5290  DIHED      =         5.2887
 1-4 NB =         0.3397  1-4 EEL =        10.3299  VDWAALS    =      9914.0952
 EELEC  =    -76279.6614  EHBOND  =         0.0000  RESTRAINT  =         0.0000
 EKCMT  =      6234.6255  VIRIAL  =      6276.4957  VOLUME     =    211621.6256
                                                    Density    =         0.9826
 DV/DL  =       169.4393
 ------------------------------------------------------------------------------

      R M S  F L U C T U A T I O N S

 NSTEP =   500000   TIME(PS) =    1200.000  TEMP(K) =     2.06  PRESS =   142.9
 Etot   =       173.2088  EKtot   =        85.5281  EPtot      =       149.2785
 BOND   =         0.7817  ANGLE   =         1.3853  DIHED      =         0.0999
 1-4 NB =         0.1996  1-4 EEL =         0.1614  VDWAALS    =       125.2819
 EELEC  =       223.6478  EHBOND  =         0.0000  RESTRAINT  =         0.0000
 EKCMT  =        60.3938  VIRIAL  =       660.5705  VOLUME     =      1508.4659
                                                    Density    =         0.0066
 DV/DL  =        10.0790
 ------------------------------------------------------------------------------

      DV/DL, AVERAGES OVER  500000 STEPS

 NSTEP =   500000   TIME(PS) =    1200.000  TEMP(K) =     2.06  PRESS =     0.0
 Etot   =         0.0000  EKtot   =         0.0000  EPtot      =       169.4393
 BOND   =         0.0000  ANGLE   =         0.0000  DIHED      =         0.0000
 1-4 NB =         0.0000  1-4 EEL =       -10.4260  VDWAALS    =         0.0000
 EELEC  =       179.8654  EHBOND  =         0.0000  RESTRAINT  =         0.0000
 EKCMT  =         0.0000  VIRIAL  =         0.0000  VOLUME     =         0.0000
                                                    Density    =         0.0000
 DV/DL  =       169.4393
 ------------------------------------------------------------------------------
