-------------------------------------------------------
          Amber 18 PMEMD                              2018
          -------------------------------------------------------

  [-O]verwriting output

File Assignments:

 Here is the input file:

 &cntrl
   nstlim=500000, nscm=1000,
   ntx=5, irest=1, ntpr=1000,
   tempi=300.0, temp0=300.0, ntt=3, gamma_ln=2.0,
   ntp=1, pres0=1.01325, taup=5.0,
   ntb=2, igb=0, cut=10.0,
   dt=0.002, ig=-1,
   ntc=2, ntf=2,
   iwrap=0,
   ntwr=1000, ntwx=50000, ntave=1000,
   ioutfm=1, ntwv=-1,
   ifsc = 0, icfe=1,
   clambda=0.20634,
   timask1=':1',
   timask2=':2', crgmask = ':2',
/

Note: ig = -1. Setting random seed to   575146 based on wallclock time in
      microseconds.

--------------------------------------------------------------------------------
   1.  RESOURCE   USE:
--------------------------------------------------------------------------------

 getting box info from netcdf restart file
 NATOM  =   20855 NTYPES =       6 NBONH =   20847 MBONA  =       6
 NTHETH =      12 MTHETA =       6 NPHIH =      24 MPHIA  =       2
 NHPARM =       0 NPARM  =       0 NNB   =   27832 NRES   =    6949
 NBONA  =       6 NTHETA =       6 NPHIA =       2 NUMBND =       5
 NUMANG =       4 NPTRA  =       3 NATYP =       6 NPHB   =       1
 IFBOX  =       2 NMXRS  =       7 IFCAP =       0 NEXTRA =       0
 NCOPY  =       0

     BOX TYPE: TRUNCATED OCTAHEDRON

--------------------------------------------------------------------------------
   2.  CONTROL  DATA  FOR  THE  RUN
--------------------------------------------------------------------------------

default_name

General flags:
     imin    =       0, nmropt  =       0

Nature and format of input:
     ntx     =       5, irest   =       1, ntrx    =       1

Nature and format of output:
     ntxo    =       2, ntpr    =    1000, ntrx    =       1, ntwr    =    1000
     iwrap   =       0, ntwx    =   50000, ntwv    =      -1, ntwe    =       0
     ioutfm  =       1, ntwprt  =       0, idecomp =       0, rbornstat=      0

Potential function:
     ntf     =       2, ntb     =       2, igb     =       0, nsnb    =      25
     ipol    =       0, gbsa    =       0, iesp    =       0
     dielc   =   1.00000, cut     =  10.00000, intdiel =   1.00000

Frozen or restrained atoms:
     ibelly  =       0, ntr     =       0

Molecular dynamics:
     nstlim  =    500000, nscm    =      1000, nrespa  =         1
     t       =   0.00000, dt      =   0.00200, vlimit  =  -1.00000

Langevin dynamics temperature regulation:
     ig      =  575146
     temp0   = 300.00000, tempi   = 300.00000, gamma_ln=   2.00000

Pressure regulation:
     ntp     =       1
     pres0   =   1.01325, comp    =  44.60000, taup    =   5.00000

SHAKE:
     ntc     =       2, jfastw  =       0
     tol     =   0.00001

Free energy options:
     icfe    =       1, ifsc    =       0, klambda =       1
     clambda =  0.2063, scalpha =  0.5000, scbeta  = 12.0000
     sceeorder =       2
     dynlmb =  0.0000 logdvdl =       0

Ewald parameters:
     verbose =       0, ew_type =       0, nbflag  =       1, use_pme =       1
     vdwmeth =       1, eedmeth =       1, netfrc  =       1
     Box X =   66.953   Box Y =   66.953   Box Z =   66.953
     Alpha =  109.471   Beta  =  109.471   Gamma =  109.471
     NFFT1 =   64       NFFT2 =   64       NFFT3 =   64
     Cutoff=   10.000   Tol   =0.100E-04
     Ewald Coefficient =  0.27511
     Interpolation order =    4
     TI Mask 1 :1; matches      7 atoms
     TI Mask 2 :2; matches      7 atoms
     TI region 1:   20848 atoms
     TI region 2:   20848 atoms
Removing charge of      -0.8188 from atom       8
Removing charge of      -0.8188 from atom       9
Removing charge of       0.8054 from atom      10
Removing charge of      -0.1021 from atom      11
Removing charge of      -0.0219 from atom      12
Removing charge of      -0.0219 from atom      13
Removing charge of      -0.0219 from atom      14
Total charge of  -0.99999900 removed from       7 atoms
     Checking for mismatched coordinates.

--------------------------------------------------------------------------------
   3.  ATOMIC COORDINATES AND VELOCITIES
--------------------------------------------------------------------------------

default_name
 begin time read from input coords =   200.000 ps

 Number of triangulated 3-point waters found:     6947

     Sum of charges for TI region  1 =  -0.99999900
     Assuming uniform neutralizing plasma

     Sum of charges for TI region  2 =   0.00000000
     Forcing neutrality...

--------------------------------------------------------------------------------
   4.  RESULTS
 NSTEP =     1000   TIME(PS) =     202.000  TEMP(K) =   304.16  PRESS =  -626.3
 Etot   =    -52850.7615  EKtot   =     12602.3679  EPtot      =    -65453.1294
 BOND   =         0.6913  ANGLE   =         5.2438  DIHED      =         5.3330
 1-4 NB =         0.2739  1-4 EEL =         8.3053  VDWAALS    =      9628.4687
 EELEC  =    -75101.4454  EHBOND  =         0.0000  RESTRAINT  =         0.0000
 EKCMT  =      6362.9175  VIRIAL  =      9453.6425  VOLUME     =    228552.1087
                                                    Density    =         0.9098
 DV/DL  =       125.1146
 ------------------------------------------------------------------------------

      A V E R A G E S   O V E R    1000 S T E P S

 NSTEP =     1000   TIME(PS) =     202.000  TEMP(K) =   300.69  PRESS =  -605.8
 Etot   =    -52870.6607  EKtot   =     12458.3624  EPtot      =    -65329.0231
 BOND   =         0.9012  ANGLE   =         4.9095  DIHED      =         5.2974
 1-4 NB =         0.3724  1-4 EEL =         8.3071  VDWAALS    =      9651.2543
 EELEC  =    -75000.0650  EHBOND  =         0.0000  RESTRAINT  =         0.0000
 EKCMT  =      6246.9272  VIRIAL  =      9252.6109  VOLUME     =    229775.4312
                                                    Density    =         0.9049
 DV/DL  =       133.5519
 ------------------------------------------------------------------------------

      R M S  F L U C T U A T I O N S

 NSTEP =     1000   TIME(PS) =     202.000  TEMP(K) =     2.10  PRESS =   114.6
 Etot   =        50.1688  EKtot   =        86.8824  EPtot      =        86.2918
 BOND   =         0.6550  ANGLE   =         0.9336  DIHED      =         0.1051
 1-4 NB =         0.2081  1-4 EEL =         0.1192  VDWAALS    =       109.7883
 EELEC  =       145.2126  EHBOND  =         0.0000  RESTRAINT  =         0.0000
 EKCMT  =        67.0612  VIRIAL  =       557.3359  VOLUME     =       706.9446
                                                    Density    =         0.0028
 DV/DL  =         8.3921
 ------------------------------------------------------------------------------

      A V E R A G E S   O V E R    1000 S T E P S

 NSTEP =     1000   TIME(PS) =     202.000  TEMP(K) =   300.69  PRESS =  -605.8
 Etot   =    -52870.6607  EKtot   =     12458.3624  EPtot      =    -65329.0231
 BOND   =         0.9012  ANGLE   =         4.9095  DIHED      =         5.2974
 1-4 NB =         0.3724  1-4 EEL =         8.3071  VDWAALS    =      9651.2543
 EELEC  =    -75000.0650  EHBOND  =         0.0000  RESTRAINT  =         0.0000
 EKCMT  =      6246.9272  VIRIAL  =      9252.6109  VOLUME     =    229775.4312
                                                    Density    =         0.9049
 DV/DL  =       133.5519
 ------------------------------------------------------------------------------

      R M S  F L U C T U A T I O N S

 NSTEP =     1000   TIME(PS) =     202.000  TEMP(K) =     2.10  PRESS =   114.6
 Etot   =        50.1688  EKtot   =        86.8824  EPtot      =        86.2918
 BOND   =         0.6550  ANGLE   =         0.9336  DIHED      =         0.1051
 1-4 NB =         0.2081  1-4 EEL =         0.1192  VDWAALS    =       109.7883
 EELEC  =       145.2126  EHBOND  =         0.0000  RESTRAINT  =         0.0000
 EKCMT  =        67.0612  VIRIAL  =       557.3359  VOLUME     =       706.9446
                                                    Density    =         0.0028
 DV/DL  =         8.3921
 ------------------------------------------------------------------------------

      DV/DL, AVERAGES OVER    1000 STEPS

 NSTEP =     1000   TIME(PS) =     202.000  TEMP(K) =     2.10  PRESS =     0.0
 Etot   =         0.0000  EKtot   =         0.0000  EPtot      =       133.5519
 BOND   =         0.0000  ANGLE   =         0.0000  DIHED      =         0.0000
 1-4 NB =         0.0000  1-4 EEL =       -10.4668  VDWAALS    =         0.0000
 EELEC  =       144.0187  EHBOND  =         0.0000  RESTRAINT  =         0.0000
 EKCMT  =         0.0000  VIRIAL  =         0.0000  VOLUME     =         0.0000
                                                    Density    =         0.0000
 DV/DL  =       133.5519
 ------------------------------------------------------------------------------

      A V E R A G E S   O V E R    1000 S T E P S

 NSTEP =     2000   TIME(PS) =     204.000  TEMP(K) =   301.25  PRESS =  -499.8
 Etot   =    -53030.2512  EKtot   =     12481.7053  EPtot      =    -65511.9565
 BOND   =         0.7351  ANGLE   =         5.0594  DIHED      =         5.3247
 1-4 NB =         0.3716  1-4 EEL =         8.3057  VDWAALS    =      9694.5835
 EELEC  =    -75226.3365  EHBOND  =         0.0000  RESTRAINT  =         0.0000
 EKCMT  =      6269.5559  VIRIAL  =      8725.1378  VOLUME     =    227511.7569
                                                    Density    =         0.9139
 DV/DL  =       128.9724
 ------------------------------------------------------------------------------

      R M S  F L U C T U A T I O N S

 NSTEP =     2000   TIME(PS) =     204.000  TEMP(K) =     1.70  PRESS =   121.7
 Etot   =       104.3012  EKtot   =        70.2576  EPtot      =        90.0884
 BOND   =         0.5528  ANGLE   =         1.1967  DIHED      =         0.1324
 1-4 NB =         0.1929  1-4 EEL =         0.1180  VDWAALS    =       115.9313
 EELEC  =       149.3519  EHBOND  =         0.0000  RESTRAINT  =         0.0000
 EKCMT  =        64.1223  VIRIAL  =       602.0028  VOLUME     =       598.7010
                                                    Density    =         0.0024
 DV/DL  =        10.4427
 ------------------------------------------------------------------------------

      A V E R A G E S   O V E R    1000 S T E P S

 NSTEP =     2000   TIME(PS) =     204.000  TEMP(K) =   301.25  PRESS =  -499.8
 Etot   =    -53030.2512  EKtot   =     12481.7053  EPtot      =    -65511.9565
 BOND   =         0.7351  ANGLE   =         5.0594  DIHED      =         5.3247
 1-4 NB =         0.3716  1-4 EEL =         8.3057  VDWAALS    =      9694.5835
 EELEC  =    -75226.3365  EHBOND  =         0.0000  RESTRAINT  =         0.0000
 EKCMT  =      6269.5559  VIRIAL  =      8725.1378  VOLUME     =    227511.7569
                                                    Density    =         0.9139
 DV/DL  =       128.9724
 ------------------------------------------------------------------------------

      R M S  F L U C T U A T I O N S

 NSTEP =     2000   TIME(PS) =     204.000  TEMP(K) =     1.70  PRESS =   121.7
 Etot   =       104.3012  EKtot   =        70.2576  EPtot      =        90.0884
 BOND   =         0.5528  ANGLE   =         1.1967  DIHED      =         0.1324
 1-4 NB =         0.1929  1-4 EEL =         0.1180  VDWAALS    =       115.9313
 EELEC  =       149.3519  EHBOND  =         0.0000  RESTRAINT  =         0.0000
 EKCMT  =        64.1223  VIRIAL  =       602.0028  VOLUME     =       598.7010
                                                    Density    =         0.0024
 DV/DL  =        10.4427
 ------------------------------------------------------------------------------

      DV/DL, AVERAGES OVER    1000 STEPS

 NSTEP =     2000   TIME(PS) =     204.000  TEMP(K) =     1.70  PRESS =     0.0
 Etot   =         0.0000  EKtot   =         0.0000  EPtot      =       128.9724
 BOND   =         0.0000  ANGLE   =         0.0000  DIHED      =         0.0000
 1-4 NB =         0.0000  1-4 EEL =       -10.4650  VDWAALS    =         0.0000
 EELEC  =       139.4375  EHBOND  =         0.0000  RESTRAINT  =         0.0000
 EKCMT  =         0.0000  VIRIAL  =         0.0000  VOLUME     =         0.0000
                                                    Density    =         0.0000
 DV/DL  =       128.9724
 ------------------------------------------------------------------------------

      A V E R A G E S   O V E R    1000 S T E P S

 NSTEP =   500000   TIME(PS) =    1200.000  TEMP(K) =   300.67  PRESS =    24.1
 Etot   =    -53823.4795  EKtot   =     12457.5996  EPtot      =    -66281.0791
 BOND   =         0.8307  ANGLE   =         4.5200  DIHED      =         5.2857
 1-4 NB =         0.3491  1-4 EEL =         8.2940  VDWAALS    =      9945.9240
 EELEC  =    -76246.2827  EHBOND  =         0.0000  RESTRAINT  =         0.0000
 EKCMT  =      6233.4985  VIRIAL  =      6123.4773  VOLUME     =    211700.5787
                                                    Density    =         0.9822
 DV/DL  =       132.3778
 ------------------------------------------------------------------------------

      R M S  F L U C T U A T I O N S

 NSTEP =   500000   TIME(PS) =    1200.000  TEMP(K) =     1.83  PRESS =   125.7
 Etot   =       119.5816  EKtot   =        75.9162  EPtot      =       104.4986
 BOND   =         0.6381  ANGLE   =         0.8544  DIHED      =         0.0872
 1-4 NB =         0.1682  1-4 EEL =         0.1212  VDWAALS    =       116.7501
 EELEC  =       169.3477  EHBOND  =         0.0000  RESTRAINT  =         0.0000
 EKCMT  =        52.1886  VIRIAL  =       576.8514  VOLUME     =        36.3691
                                                    Density    =         0.0002
 DV/DL  =         9.8180
 ------------------------------------------------------------------------------

      A V E R A G E S   O V E R    1000 S T E P S

 NSTEP =   500000   TIME(PS) =    1200.000  TEMP(K) =   300.67  PRESS =    24.1
 Etot   =    -53823.4795  EKtot   =     12457.5996  EPtot      =    -66281.0791
 BOND   =         0.8307  ANGLE   =         4.5200  DIHED      =         5.2857
 1-4 NB =         0.3491  1-4 EEL =         8.2940  VDWAALS    =      9945.9240
 EELEC  =    -76246.2827  EHBOND  =         0.0000  RESTRAINT  =         0.0000
 EKCMT  =      6233.4985  VIRIAL  =      6123.4773  VOLUME     =    211700.5787
                                                    Density    =         0.9822
 DV/DL  =       132.3778
 ------------------------------------------------------------------------------

      R M S  F L U C T U A T I O N S

 NSTEP =   500000   TIME(PS) =    1200.000  TEMP(K) =     1.83  PRESS =   125.7
 Etot   =       119.5816  EKtot   =        75.9162  EPtot      =       104.4986
 BOND   =         0.6381  ANGLE   =         0.8544  DIHED      =         0.0872
 1-4 NB =         0.1682  1-4 EEL =         0.1212  VDWAALS    =       116.7501
 EELEC  =       169.3477  EHBOND  =         0.0000  RESTRAINT  =         0.0000
 EKCMT  =        52.1886  VIRIAL  =       576.8514  VOLUME     =        36.3691
                                                    Density    =         0.0002
 DV/DL  =         9.8180
 ------------------------------------------------------------------------------

      DV/DL, AVERAGES OVER    1000 STEPS

 NSTEP =   500000   TIME(PS) =    1200.000  TEMP(K) =     1.83  PRESS =     0.0
 Etot   =         0.0000  EKtot   =         0.0000  EPtot      =       132.3778
 BOND   =         0.0000  ANGLE   =         0.0000  DIHED      =         0.0000
 1-4 NB =         0.0000  1-4 EEL =       -10.4503  VDWAALS    =         0.0000
 EELEC  =       142.8281  EHBOND  =         0.0000  RESTRAINT  =         0.0000
 EKCMT  =         0.0000  VIRIAL  =         0.0000  VOLUME     =         0.0000
                                                    Density    =         0.0000
 DV/DL  =       132.3778
 ------------------------------------------------------------------------------

      A V E R A G E S   O V E R  500000 S T E P S

 NSTEP =   500000   TIME(PS) =    1200.000  TEMP(K) =   300.09  PRESS =    -8.8
 Etot   =    -53870.5849  EKtot   =     12433.7447  EPtot      =    -66304.3295
 BOND   =         0.9764  ANGLE   =         5.2983  DIHED      =         5.2848
 1-4 NB =         0.3690  1-4 EEL =         8.2910  VDWAALS    =      9910.1448
 EELEC  =    -76234.6937  EHBOND  =         0.0000  RESTRAINT  =         0.0000
 EKCMT  =      6236.5195  VIRIAL  =      6278.6706  VOLUME     =    211697.9693
                                                    Density    =         0.9823
 DV/DL  =       134.2884
 ------------------------------------------------------------------------------

      R M S  F L U C T U A T I O N S

 NSTEP =   500000   TIME(PS) =    1200.000  TEMP(K) =     2.09  PRESS =   143.3
 Etot   =       172.8147  EKtot   =        86.4934  EPtot      =       146.4228
 BOND   =         0.7942  ANGLE   =         1.2749  DIHED      =         0.0951
 1-4 NB =         0.2163  1-4 EEL =         0.1321  VDWAALS    =       127.2071
 EELEC  =       221.1950  EHBOND  =         0.0000  RESTRAINT  =         0.0000
 EKCMT  =        61.7273  VIRIAL  =       659.5185  VOLUME     =      1625.2138
                                                    Density    =         0.0071
 DV/DL  =        10.3425
 ------------------------------------------------------------------------------

      A V E R A G E S   O V E R  500000 S T E P S

 NSTEP =   500000   TIME(PS) =    1200.000  TEMP(K) =   300.09  PRESS =    -8.8
 Etot   =    -53870.5849  EKtot   =     12433.7447  EPtot      =    -66304.3295
 BOND   =         0.9764  ANGLE   =         5.2983  DIHED      =         5.2848
 1-4 NB =         0.3690  1-4 EEL =         8.2910  VDWAALS    =      9910.1448
 EELEC  =    -76234.6937  EHBOND  =         0.0000  RESTRAINT  =         0.0000
 EKCMT  =      6236.5195  VIRIAL  =      6278.6706  VOLUME     =    211697.9693
                                                    Density    =         0.9823
 DV/DL  =       134.2884
 ------------------------------------------------------------------------------

      R M S  F L U C T U A T I O N S

 NSTEP =   500000   TIME(PS) =    1200.000  TEMP(K) =     2.09  PRESS =   143.3
 Etot   =       172.8147  EKtot   =        86.4934  EPtot      =       146.4228
 BOND   =         0.7942  ANGLE   =         1.2749  DIHED      =         0.0951
 1-4 NB =         0.2163  1-4 EEL =         0.1321  VDWAALS    =       127.2071
 EELEC  =       221.1950  EHBOND  =         0.0000  RESTRAINT  =         0.0000
 EKCMT  =        61.7273  VIRIAL  =       659.5185  VOLUME     =      1625.2138
                                                    Density    =         0.0071
 DV/DL  =        10.3425
 ------------------------------------------------------------------------------

      DV/DL, AVERAGES OVER  500000 STEPS

 NSTEP =   500000   TIME(PS) =    1200.000  TEMP(K) =     2.09  PRESS =     0.0
 Etot   =         0.0000  EKtot   =         0.0000  EPtot      =       134.2884
 BOND   =         0.0000  ANGLE   =         0.0000  DIHED      =         0.0000
 1-4 NB =         0.0000  1-4 EEL =       -10.4465  VDWAALS    =         0.0000
 EELEC  =       144.7349  EHBOND  =         0.0000  RESTRAINT  =         0.0000
 EKCMT  =         0.0000  VIRIAL  =         0.0000  VOLUME     =         0.0000
                                                    Density    =         0.0000
 DV/DL  =       134.2884
 ------------------------------------------------------------------------------
