-------------------------------------------------------
          Amber 18 PMEMD                              2018
          -------------------------------------------------------

  [-O]verwriting output

File Assignments:

 Here is the input file:

 &cntrl
   nstlim=500000, nscm=1000,
   ntx=5, irest=1, ntpr=1000,
   tempi=300.0, temp0=300.0, ntt=3, gamma_ln=2.0,
   ntp=1, pres0=1.01325, taup=5.0,
   ntb=2, igb=0, cut=10.0,
   dt=0.002, ig=-1,
   ntc=2, ntf=2,
   iwrap=0,
   ntwr=1000, ntwx=50000, ntave=1000,
   ioutfm=1, ntwv=-1,
   ifsc = 0, icfe=1,
   clambda=0.11505,
   timask1=':1',
   timask2=':2', crgmask = ':2',
/

Note: ig = -1. Setting random seed to   749562 based on wallclock time in
      microseconds.

--------------------------------------------------------------------------------
   1.  RESOURCE   USE:
--------------------------------------------------------------------------------

 getting box info from netcdf restart file
 NATOM  =   20852 NTYPES =       6 NBONH =   20844 MBONA  =       6
 NTHETH =      12 MTHETA =       6 NPHIH =      24 MPHIA  =       2
 NHPARM =       0 NPARM  =       0 NNB   =   27828 NRES   =    6948
 NBONA  =       6 NTHETA =       6 NPHIA =       2 NUMBND =       5
 NUMANG =       4 NPTRA  =       3 NATYP =       6 NPHB   =       1
 IFBOX  =       2 NMXRS  =       7 IFCAP =       0 NEXTRA =       0
 NCOPY  =       0

     BOX TYPE: TRUNCATED OCTAHEDRON

--------------------------------------------------------------------------------
   2.  CONTROL  DATA  FOR  THE  RUN
--------------------------------------------------------------------------------

default_name

General flags:
     imin    =       0, nmropt  =       0

Nature and format of input:
     ntx     =       5, irest   =       1, ntrx    =       1

Nature and format of output:
     ntxo    =       2, ntpr    =    1000, ntrx    =       1, ntwr    =    1000
     iwrap   =       0, ntwx    =   50000, ntwv    =      -1, ntwe    =       0
     ioutfm  =       1, ntwprt  =       0, idecomp =       0, rbornstat=      0

Potential function:
     ntf     =       2, ntb     =       2, igb     =       0, nsnb    =      25
     ipol    =       0, gbsa    =       0, iesp    =       0
     dielc   =   1.00000, cut     =  10.00000, intdiel =   1.00000

Frozen or restrained atoms:
     ibelly  =       0, ntr     =       0

Molecular dynamics:
     nstlim  =    500000, nscm    =      1000, nrespa  =         1
     t       =   0.00000, dt      =   0.00200, vlimit  =  -1.00000

Langevin dynamics temperature regulation:
     ig      =  749562
     temp0   = 300.00000, tempi   = 300.00000, gamma_ln=   2.00000

Pressure regulation:
     ntp     =       1
     pres0   =   1.01325, comp    =  44.60000, taup    =   5.00000

SHAKE:
     ntc     =       2, jfastw  =       0
     tol     =   0.00001

Free energy options:
     icfe    =       1, ifsc    =       0, klambda =       1
     clambda =  0.1150, scalpha =  0.5000, scbeta  = 12.0000
     sceeorder =       2
     dynlmb =  0.0000 logdvdl =       0

Ewald parameters:
     verbose =       0, ew_type =       0, nbflag  =       1, use_pme =       1
     vdwmeth =       1, eedmeth =       1, netfrc  =       1
     Box X =   66.953   Box Y =   66.953   Box Z =   66.953
     Alpha =  109.471   Beta  =  109.471   Gamma =  109.471
     NFFT1 =   64       NFFT2 =   64       NFFT3 =   64
     Cutoff=   10.000   Tol   =0.100E-04
     Ewald Coefficient =  0.27511
     Interpolation order =    4
     TI Mask 1 :1; matches      7 atoms
     TI Mask 2 :2; matches      7 atoms
     TI region 1:   20845 atoms
     TI region 2:   20845 atoms
Removing charge of      -0.8188 from atom       8
Removing charge of      -0.8188 from atom       9
Removing charge of       0.8054 from atom      10
Removing charge of      -0.1021 from atom      11
Removing charge of      -0.0219 from atom      12
Removing charge of      -0.0219 from atom      13
Removing charge of      -0.0219 from atom      14
Total charge of  -0.99999900 removed from       7 atoms
     Checking for mismatched coordinates.

--------------------------------------------------------------------------------
   3.  ATOMIC COORDINATES AND VELOCITIES
--------------------------------------------------------------------------------

default_name
 begin time read from input coords =   200.000 ps

 Number of triangulated 3-point waters found:     6946

     Sum of charges for TI region  1 =  -1.00000662
     Assuming uniform neutralizing plasma

     Sum of charges for TI region  2 =  -0.00000762
     Forcing neutrality...

--------------------------------------------------------------------------------
   4.  RESULTS
 NSTEP =     1000   TIME(PS) =     202.000  TEMP(K) =   300.04  PRESS =  -703.2
 Etot   =    -64014.3970  EKtot   =     12429.7661  EPtot      =    -76444.1631
 BOND   =         1.3704  ANGLE   =         5.8349  DIHED      =         5.5651
 1-4 NB =         0.4557  1-4 EEL =         9.2273  VDWAALS    =     14451.5515
 EELEC  =    -90918.1681  EHBOND  =         0.0000  RESTRAINT  =         0.0000
 EKCMT  =      6302.1760  VIRIAL  =      9741.7742  VOLUME     =    226546.8219
                                                    Density    =         0.9177
 DV/DL  =       161.3141
 ------------------------------------------------------------------------------

      A V E R A G E S   O V E R    1000 S T E P S

 NSTEP =     1000   TIME(PS) =     202.000  TEMP(K) =   301.07  PRESS = -1099.8
 Etot   =    -63839.7595  EKtot   =     12472.4865  EPtot      =    -76312.2460
 BOND   =         1.0297  ANGLE   =         4.7527  DIHED      =         5.2920
 1-4 NB =         0.3406  1-4 EEL =         9.2357  VDWAALS    =     14102.1135
 EELEC  =    -90435.0101  EHBOND  =         0.0000  RESTRAINT  =         0.0000
 EKCMT  =      6260.3057  VIRIAL  =     11693.3034  VOLUME     =    228734.1196
                                                    Density    =         0.9089
 DV/DL  =       154.3863
 ------------------------------------------------------------------------------

      R M S  F L U C T U A T I O N S

 NSTEP =     1000   TIME(PS) =     202.000  TEMP(K) =     2.00  PRESS =   149.8
 Etot   =        97.0062  EKtot   =        82.9891  EPtot      =       119.8324
 BOND   =         0.8194  ANGLE   =         1.0132  DIHED      =         0.0906
 1-4 NB =         0.1992  1-4 EEL =         0.1455  VDWAALS    =       159.7470
 EELEC  =       234.6803  EHBOND  =         0.0000  RESTRAINT  =         0.0000
 EKCMT  =        59.1121  VIRIAL  =       745.3466  VOLUME     =      1264.5713
                                                    Density    =         0.0050
 DV/DL  =        10.6072
 ------------------------------------------------------------------------------

      A V E R A G E S   O V E R    1000 S T E P S

 NSTEP =     1000   TIME(PS) =     202.000  TEMP(K) =   301.07  PRESS = -1099.8
 Etot   =    -63839.7595  EKtot   =     12472.4865  EPtot      =    -76312.2460
 BOND   =         1.0297  ANGLE   =         4.7527  DIHED      =         5.2920
 1-4 NB =         0.3406  1-4 EEL =         9.2357  VDWAALS    =     14102.1135
 EELEC  =    -90435.0101  EHBOND  =         0.0000  RESTRAINT  =         0.0000
 EKCMT  =      6260.3057  VIRIAL  =     11693.3034  VOLUME     =    228734.1196
                                                    Density    =         0.9089
 DV/DL  =       154.3863
 ------------------------------------------------------------------------------

      R M S  F L U C T U A T I O N S

 NSTEP =     1000   TIME(PS) =     202.000  TEMP(K) =     2.00  PRESS =   149.8
 Etot   =        97.0062  EKtot   =        82.9891  EPtot      =       119.8324
 BOND   =         0.8194  ANGLE   =         1.0132  DIHED      =         0.0906
 1-4 NB =         0.1992  1-4 EEL =         0.1455  VDWAALS    =       159.7470
 EELEC  =       234.6803  EHBOND  =         0.0000  RESTRAINT  =         0.0000
 EKCMT  =        59.1121  VIRIAL  =       745.3466  VOLUME     =      1264.5713
                                                    Density    =         0.0050
 DV/DL  =        10.6072
 ------------------------------------------------------------------------------

      DV/DL, AVERAGES OVER    1000 STEPS

 NSTEP =     1000   TIME(PS) =     202.000  TEMP(K) =     2.00  PRESS =     0.0
 Etot   =         0.0000  EKtot   =         0.0000  EPtot      =       154.3863
 BOND   =         0.0000  ANGLE   =         0.0000  DIHED      =         0.0000
 1-4 NB =         0.0000  1-4 EEL =       -10.4364  VDWAALS    =         0.0000
 EELEC  =       164.8227  EHBOND  =         0.0000  RESTRAINT  =         0.0000
 EKCMT  =         0.0000  VIRIAL  =         0.0000  VOLUME     =         0.0000
                                                    Density    =         0.0000
 DV/DL  =       154.3863
 ------------------------------------------------------------------------------

      A V E R A G E S   O V E R    1000 S T E P S

 NSTEP =     2000   TIME(PS) =     204.000  TEMP(K) =   299.99  PRESS =  -928.4
 Etot   =    -64182.6810  EKtot   =     12427.6217  EPtot      =    -76610.3027
 BOND   =         0.9539  ANGLE   =         5.2109  DIHED      =         5.2794
 1-4 NB =         0.3683  1-4 EEL =         9.2471  VDWAALS    =     14208.5188
 EELEC  =    -90839.8810  EHBOND  =         0.0000  RESTRAINT  =         0.0000
 EKCMT  =      6245.0328  VIRIAL  =     10748.8863  VOLUME     =    224654.1778
                                                    Density    =         0.9254
 DV/DL  =       162.1216
 ------------------------------------------------------------------------------

      R M S  F L U C T U A T I O N S

 NSTEP =     2000   TIME(PS) =     204.000  TEMP(K) =     1.93  PRESS =   122.5
 Etot   =        92.9557  EKtot   =        79.8904  EPtot      =        97.8653
 BOND   =         0.7051  ANGLE   =         1.0325  DIHED      =         0.0932
 1-4 NB =         0.2319  1-4 EEL =         0.1664  VDWAALS    =       125.7836
 EELEC  =       166.8885  EHBOND  =         0.0000  RESTRAINT  =         0.0000
 EKCMT  =        53.7657  VIRIAL  =       590.7008  VOLUME     =      1072.9287
                                                    Density    =         0.0044
 DV/DL  =         7.9990
 ------------------------------------------------------------------------------

      A V E R A G E S   O V E R    1000 S T E P S

 NSTEP =     2000   TIME(PS) =     204.000  TEMP(K) =   299.99  PRESS =  -928.4
 Etot   =    -64182.6810  EKtot   =     12427.6217  EPtot      =    -76610.3027
 BOND   =         0.9539  ANGLE   =         5.2109  DIHED      =         5.2794
 1-4 NB =         0.3683  1-4 EEL =         9.2471  VDWAALS    =     14208.5188
 EELEC  =    -90839.8810  EHBOND  =         0.0000  RESTRAINT  =         0.0000
 EKCMT  =      6245.0328  VIRIAL  =     10748.8863  VOLUME     =    224654.1778
                                                    Density    =         0.9254
 DV/DL  =       162.1216
 ------------------------------------------------------------------------------

      R M S  F L U C T U A T I O N S

 NSTEP =     2000   TIME(PS) =     204.000  TEMP(K) =     1.93  PRESS =   122.5
 Etot   =        92.9557  EKtot   =        79.8904  EPtot      =        97.8653
 BOND   =         0.7051  ANGLE   =         1.0325  DIHED      =         0.0932
 1-4 NB =         0.2319  1-4 EEL =         0.1664  VDWAALS    =       125.7836
 EELEC  =       166.8885  EHBOND  =         0.0000  RESTRAINT  =         0.0000
 EKCMT  =        53.7657  VIRIAL  =       590.7008  VOLUME     =      1072.9287
                                                    Density    =         0.0044
 DV/DL  =         7.9990
 ------------------------------------------------------------------------------

      DV/DL, AVERAGES OVER    1000 STEPS

 NSTEP =     2000   TIME(PS) =     204.000  TEMP(K) =     1.93  PRESS =     0.0
 Etot   =         0.0000  EKtot   =         0.0000  EPtot      =       162.1216
 BOND   =         0.0000  ANGLE   =         0.0000  DIHED      =         0.0000
 1-4 NB =         0.0000  1-4 EEL =       -10.4493  VDWAALS    =         0.0000
 EELEC  =       172.5708  EHBOND  =         0.0000  RESTRAINT  =         0.0000
 EKCMT  =         0.0000  VIRIAL  =         0.0000  VOLUME     =         0.0000
                                                    Density    =         0.0000
 DV/DL  =       162.1216
 ------------------------------------------------------------------------------

      A V E R A G E S   O V E R    1000 S T E P S

 NSTEP =   500000   TIME(PS) =    1200.000  TEMP(K) =   300.03  PRESS =    30.1
 Etot   =    -64989.9710  EKtot   =     12429.1857  EPtot      =    -77419.1568
 BOND   =         0.5611  ANGLE   =         4.5230  DIHED      =         5.2778
 1-4 NB =         0.3277  1-4 EEL =         9.2309  VDWAALS    =     14672.3421
 EELEC  =    -92111.4195  EHBOND  =         0.0000  RESTRAINT  =         0.0000
 EKCMT  =      6227.6905  VIRIAL  =      6092.0575  VOLUME     =    208588.2693
                                                    Density    =         0.9967
 DV/DL  =       151.5859
 ------------------------------------------------------------------------------

      R M S  F L U C T U A T I O N S

 NSTEP =   500000   TIME(PS) =    1200.000  TEMP(K) =     1.69  PRESS =   127.4
 Etot   =        61.2282  EKtot   =        70.1012  EPtot      =        79.3135
 BOND   =         0.4335  ANGLE   =         0.8570  DIHED      =         0.0751
 1-4 NB =         0.1613  1-4 EEL =         0.1299  VDWAALS    =       124.9498
 EELEC  =       161.5462  EHBOND  =         0.0000  RESTRAINT  =         0.0000
 EKCMT  =        51.1917  VIRIAL  =       566.0252  VOLUME     =        45.2928
                                                    Density    =         0.0002
 DV/DL  =         8.9909
 ------------------------------------------------------------------------------

      A V E R A G E S   O V E R    1000 S T E P S

 NSTEP =   500000   TIME(PS) =    1200.000  TEMP(K) =   300.03  PRESS =    30.1
 Etot   =    -64989.9710  EKtot   =     12429.1857  EPtot      =    -77419.1568
 BOND   =         0.5611  ANGLE   =         4.5230  DIHED      =         5.2778
 1-4 NB =         0.3277  1-4 EEL =         9.2309  VDWAALS    =     14672.3421
 EELEC  =    -92111.4195  EHBOND  =         0.0000  RESTRAINT  =         0.0000
 EKCMT  =      6227.6905  VIRIAL  =      6092.0575  VOLUME     =    208588.2693
                                                    Density    =         0.9967
 DV/DL  =       151.5859
 ------------------------------------------------------------------------------

      R M S  F L U C T U A T I O N S

 NSTEP =   500000   TIME(PS) =    1200.000  TEMP(K) =     1.69  PRESS =   127.4
 Etot   =        61.2282  EKtot   =        70.1012  EPtot      =        79.3135
 BOND   =         0.4335  ANGLE   =         0.8570  DIHED      =         0.0751
 1-4 NB =         0.1613  1-4 EEL =         0.1299  VDWAALS    =       124.9498
 EELEC  =       161.5462  EHBOND  =         0.0000  RESTRAINT  =         0.0000
 EKCMT  =        51.1917  VIRIAL  =       566.0252  VOLUME     =        45.2928
                                                    Density    =         0.0002
 DV/DL  =         8.9909
 ------------------------------------------------------------------------------

      DV/DL, AVERAGES OVER    1000 STEPS

 NSTEP =   500000   TIME(PS) =    1200.000  TEMP(K) =     1.69  PRESS =     0.0
 Etot   =         0.0000  EKtot   =         0.0000  EPtot      =       151.5859
 BOND   =         0.0000  ANGLE   =         0.0000  DIHED      =         0.0000
 1-4 NB =         0.0000  1-4 EEL =       -10.4310  VDWAALS    =         0.0000
 EELEC  =       162.0169  EHBOND  =         0.0000  RESTRAINT  =         0.0000
 EKCMT  =         0.0000  VIRIAL  =         0.0000  VOLUME     =         0.0000
                                                    Density    =         0.0000
 DV/DL  =       151.5859
 ------------------------------------------------------------------------------

      A V E R A G E S   O V E R  500000 S T E P S

 NSTEP =   500000   TIME(PS) =    1200.000  TEMP(K) =   300.01  PRESS =   -10.4
 Etot   =    -64968.7382  EKtot   =     12428.3994  EPtot      =    -77397.1376
 BOND   =         0.9553  ANGLE   =         5.3700  DIHED      =         5.2851
 1-4 NB =         0.3549  1-4 EEL =         9.2363  VDWAALS    =     14618.1888
 EELEC  =    -92036.5280  EHBOND  =         0.0000  RESTRAINT  =         0.0000
 EKCMT  =      6235.7176  VIRIAL  =      6285.3793  VOLUME     =    208672.8528
                                                    Density    =         0.9963
 DV/DL  =       158.6815
 ------------------------------------------------------------------------------

      R M S  F L U C T U A T I O N S

 NSTEP =   500000   TIME(PS) =    1200.000  TEMP(K) =     2.05  PRESS =   164.7
 Etot   =       175.4823  EKtot   =        85.0680  EPtot      =       153.3321
 BOND   =         0.7783  ANGLE   =         1.3195  DIHED      =         0.0956
 1-4 NB =         0.2071  1-4 EEL =         0.1444  VDWAALS    =       147.7835
 EELEC  =       252.4412  EHBOND  =         0.0000  RESTRAINT  =         0.0000
 EKCMT  =        60.7216  VIRIAL  =       755.7170  VOLUME     =      1513.0209
                                                    Density    =         0.0068
 DV/DL  =        10.4450
 ------------------------------------------------------------------------------

      A V E R A G E S   O V E R  500000 S T E P S

 NSTEP =   500000   TIME(PS) =    1200.000  TEMP(K) =   300.01  PRESS =   -10.4
 Etot   =    -64968.7382  EKtot   =     12428.3994  EPtot      =    -77397.1376
 BOND   =         0.9553  ANGLE   =         5.3700  DIHED      =         5.2851
 1-4 NB =         0.3549  1-4 EEL =         9.2363  VDWAALS    =     14618.1888
 EELEC  =    -92036.5280  EHBOND  =         0.0000  RESTRAINT  =         0.0000
 EKCMT  =      6235.7176  VIRIAL  =      6285.3793  VOLUME     =    208672.8528
                                                    Density    =         0.9963
 DV/DL  =       158.6815
 ------------------------------------------------------------------------------

      R M S  F L U C T U A T I O N S

 NSTEP =   500000   TIME(PS) =    1200.000  TEMP(K) =     2.05  PRESS =   164.7
 Etot   =       175.4823  EKtot   =        85.0680  EPtot      =       153.3321
 BOND   =         0.7783  ANGLE   =         1.3195  DIHED      =         0.0956
 1-4 NB =         0.2071  1-4 EEL =         0.1444  VDWAALS    =       147.7835
 EELEC  =       252.4412  EHBOND  =         0.0000  RESTRAINT  =         0.0000
 EKCMT  =        60.7216  VIRIAL  =       755.7170  VOLUME     =      1513.0209
                                                    Density    =         0.0068
 DV/DL  =        10.4450
 ------------------------------------------------------------------------------

      DV/DL, AVERAGES OVER  500000 STEPS

 NSTEP =   500000   TIME(PS) =    1200.000  TEMP(K) =     2.05  PRESS =     0.0
 Etot   =         0.0000  EKtot   =         0.0000  EPtot      =       158.6815
 BOND   =         0.0000  ANGLE   =         0.0000  DIHED      =         0.0000
 1-4 NB =         0.0000  1-4 EEL =       -10.4371  VDWAALS    =         0.0000
 EELEC  =       169.1186  EHBOND  =         0.0000  RESTRAINT  =         0.0000
 EKCMT  =         0.0000  VIRIAL  =         0.0000  VOLUME     =         0.0000
                                                    Density    =         0.0000
 DV/DL  =       158.6815
 ------------------------------------------------------------------------------
