-------------------------------------------------------
          Amber 18 PMEMD                              2018
          -------------------------------------------------------

  [-O]verwriting output

File Assignments:

 Here is the input file:

 &cntrl
   nstlim=500000, nscm=1000,
   ntx=5, irest=1, ntpr=1000,
   tempi=300.0, temp0=300.0, ntt=3, gamma_ln=2.0,
   ntp=1, pres0=1.01325, taup=5.0,
   ntb=2, igb=0, cut=10.0,
   dt=0.002, ig=-1,
   ntc=2, ntf=2,
   iwrap=0,
   ntwr=1000, ntwx=50000, ntave=1000,
   ioutfm=1, ntwv=-1,
   ifsc = 0, icfe=1,
   clambda=0.20634,
   timask1=':1',
   timask2=':2', crgmask = ':2',
/

Note: ig = -1. Setting random seed to   307357 based on wallclock time in
      microseconds.

--------------------------------------------------------------------------------
   1.  RESOURCE   USE:
--------------------------------------------------------------------------------

 getting box info from netcdf restart file
 NATOM  =      14 NTYPES =       6 NBONH =       6 MBONA  =       6
 NTHETH =      12 MTHETA =       6 NPHIH =      24 MPHIA  =       2
 NHPARM =       0 NPARM  =       0 NNB   =      44 NRES   =       2
 NBONA  =       6 NTHETA =       6 NPHIA =       2 NUMBND =       3
 NUMANG =       4 NPTRA  =       3 NATYP =       6 NPHB   =       1
 IFBOX  =       2 NMXRS  =       7 IFCAP =       0 NEXTRA =       0
 NCOPY  =       0

     BOX TYPE: TRUNCATED OCTAHEDRON

--------------------------------------------------------------------------------
   2.  CONTROL  DATA  FOR  THE  RUN
--------------------------------------------------------------------------------

default_name

General flags:
     imin    =       0, nmropt  =       0

Nature and format of input:
     ntx     =       5, irest   =       1, ntrx    =       1

Nature and format of output:
     ntxo    =       2, ntpr    =    1000, ntrx    =       1, ntwr    =    1000
     iwrap   =       0, ntwx    =   50000, ntwv    =      -1, ntwe    =       0
     ioutfm  =       1, ntwprt  =       0, idecomp =       0, rbornstat=      0

Potential function:
     ntf     =       2, ntb     =       2, igb     =       0, nsnb    =      25
     ipol    =       0, gbsa    =       0, iesp    =       0
     dielc   =   1.00000, cut     =  10.00000, intdiel =   1.00000

Frozen or restrained atoms:
     ibelly  =       0, ntr     =       0

Molecular dynamics:
     nstlim  =    500000, nscm    =      1000, nrespa  =         1
     t       =   0.00000, dt      =   0.00200, vlimit  =  -1.00000

Langevin dynamics temperature regulation:
     ig      =  307357
     temp0   = 300.00000, tempi   = 300.00000, gamma_ln=   2.00000

Pressure regulation:
     ntp     =       1
     pres0   =   1.01325, comp    =  44.60000, taup    =   5.00000

SHAKE:
     ntc     =       2, jfastw  =       0
     tol     =   0.00001

Free energy options:
     icfe    =       1, ifsc    =       0, klambda =       1
     clambda =  0.2063, scalpha =  0.5000, scbeta  = 12.0000
     sceeorder =       2
     dynlmb =  0.0000 logdvdl =       0

Ewald parameters:
     verbose =       0, ew_type =       0, nbflag  =       1, use_pme =       1
     vdwmeth =       1, eedmeth =       1, netfrc  =       1
     Box X =   66.953   Box Y =   66.953   Box Z =   66.953
     Alpha =  109.471   Beta  =  109.471   Gamma =  109.471
     NFFT1 =   64       NFFT2 =   64       NFFT3 =   64
     Cutoff=   10.000   Tol   =0.100E-04
     Ewald Coefficient =  0.27511
     Interpolation order =    4
     TI Mask 1 :1; matches      7 atoms
     TI Mask 2 :2; matches      7 atoms
     TI region 1:       7 atoms
     TI region 2:       7 atoms
Removing charge of      -0.8188 from atom       8
Removing charge of      -0.8188 from atom       9
Removing charge of       0.8054 from atom      10
Removing charge of      -0.1021 from atom      11
Removing charge of      -0.0219 from atom      12
Removing charge of      -0.0219 from atom      13
Removing charge of      -0.0219 from atom      14
Total charge of  -0.99999900 removed from       7 atoms
     Checking for mismatched coordinates.

--------------------------------------------------------------------------------
   3.  ATOMIC COORDINATES AND VELOCITIES
--------------------------------------------------------------------------------

default_name
 begin time read from input coords =   200.000 ps

 Number of triangulated 3-point waters found:        0

     Sum of charges for TI region  1 =  -0.99999900
     Assuming uniform neutralizing plasma

     Sum of charges for TI region  2 =   0.00000000
     Forcing neutrality...

--------------------------------------------------------------------------------
   4.  RESULTS
 NSTEP =     1000   TIME(PS) =     202.000  TEMP(K) =   176.45  PRESS =    -0.2
 Etot   =        17.0339  EKtot   =         3.1558  EPtot      =        13.8782
 BOND   =         0.7323  ANGLE   =         5.4074  DIHED      =         5.2021
 1-4 NB =         0.3813  1-4 EEL =         8.3519  VDWAALS    =        -0.0001
 EELEC  =        -6.1967  EHBOND  =         0.0000  RESTRAINT  =         0.0000
 EKCMT  =         0.9763  VIRIAL  =         2.0504  VOLUME     =    231032.8160
                                                    Density    =         0.0004
 DV/DL  =        -2.7155
 ------------------------------------------------------------------------------

      A V E R A G E S   O V E R    1000 S T E P S

 NSTEP =     1000   TIME(PS) =     202.000  TEMP(K) =   247.78  PRESS =    -0.0
 Etot   =        17.0812  EKtot   =         4.4315  EPtot      =        12.6497
 BOND   =         0.8235  ANGLE   =         4.1459  DIHED      =         5.2485
 1-4 NB =         0.3423  1-4 EEL =         8.2861  VDWAALS    =        -0.0001
 EELEC  =        -6.1965  EHBOND  =         0.0000  RESTRAINT  =         0.0000
 EKCMT  =         2.0161  VIRIAL  =         2.2520  VOLUME     =    231034.8519
                                                    Density    =         0.0004
 DV/DL  =        -2.6328
 ------------------------------------------------------------------------------

      R M S  F L U C T U A T I O N S

 NSTEP =     1000   TIME(PS) =     202.000  TEMP(K) =    58.65  PRESS =     0.2
 Etot   =         0.8086  EKtot   =         1.0489  EPtot      =         0.8201
 BOND   =         0.5815  ANGLE   =         0.6705  DIHED      =         0.0482
 1-4 NB =         0.1837  1-4 EEL =         0.1303  VDWAALS    =         0.0000
 EELEC  =         0.0021  EHBOND  =         0.0000  RESTRAINT  =         0.0000
 EKCMT  =         1.2165  VIRIAL  =         0.3808  VOLUME     =         1.2331
                                                    Density    =         0.0000
 DV/DL  =         0.1641
 ------------------------------------------------------------------------------

      A V E R A G E S   O V E R    1000 S T E P S

 NSTEP =     1000   TIME(PS) =     202.000  TEMP(K) =   247.78  PRESS =    -0.0
 Etot   =        17.0812  EKtot   =         4.4315  EPtot      =        12.6497
 BOND   =         0.8235  ANGLE   =         4.1459  DIHED      =         5.2485
 1-4 NB =         0.3423  1-4 EEL =         8.2861  VDWAALS    =        -0.0001
 EELEC  =        -6.1965  EHBOND  =         0.0000  RESTRAINT  =         0.0000
 EKCMT  =         2.0161  VIRIAL  =         2.2520  VOLUME     =    231034.8519
                                                    Density    =         0.0004
 DV/DL  =        -2.6328
 ------------------------------------------------------------------------------

      R M S  F L U C T U A T I O N S

 NSTEP =     1000   TIME(PS) =     202.000  TEMP(K) =    58.65  PRESS =     0.2
 Etot   =         0.8086  EKtot   =         1.0489  EPtot      =         0.8201
 BOND   =         0.5815  ANGLE   =         0.6705  DIHED      =         0.0482
 1-4 NB =         0.1837  1-4 EEL =         0.1303  VDWAALS    =         0.0000
 EELEC  =         0.0021  EHBOND  =         0.0000  RESTRAINT  =         0.0000
 EKCMT  =         1.2165  VIRIAL  =         0.3808  VOLUME     =         1.2331
                                                    Density    =         0.0000
 DV/DL  =         0.1641
 ------------------------------------------------------------------------------

      DV/DL, AVERAGES OVER    1000 STEPS

 NSTEP =     1000   TIME(PS) =     202.000  TEMP(K) =    58.65  PRESS =     0.0
 Etot   =         0.0000  EKtot   =         0.0000  EPtot      =        -2.6328
 BOND   =         0.0000  ANGLE   =         0.0000  DIHED      =         0.0000
 1-4 NB =         0.0000  1-4 EEL =       -10.4404  VDWAALS    =         0.0000
 EELEC  =         7.8075  EHBOND  =         0.0000  RESTRAINT  =         0.0000
 EKCMT  =         0.0000  VIRIAL  =         0.0000  VOLUME     =         0.0000
                                                    Density    =         0.0000
 DV/DL  =        -2.6328
 ------------------------------------------------------------------------------

      A V E R A G E S   O V E R    1000 S T E P S

 NSTEP =     2000   TIME(PS) =     204.000  TEMP(K) =   286.96  PRESS =     0.1
 Etot   =        18.4862  EKtot   =         5.1322  EPtot      =        13.3539
 BOND   =         0.6413  ANGLE   =         5.0113  DIHED      =         5.2541
 1-4 NB =         0.3522  1-4 EEL =         8.2922  VDWAALS    =        -0.0001
 EELEC  =        -6.1971  EHBOND  =         0.0000  RESTRAINT  =         0.0000
 EKCMT  =         2.3349  VIRIAL  =         1.8783  VOLUME     =    231030.9929
                                                    Density    =         0.0004
 DV/DL  =        -2.6398
 ------------------------------------------------------------------------------

      R M S  F L U C T U A T I O N S

 NSTEP =     2000   TIME(PS) =     204.000  TEMP(K) =    78.64  PRESS =     0.3
 Etot   =         1.5953  EKtot   =         1.4064  EPtot      =         0.9652
 BOND   =         0.4439  ANGLE   =         0.8454  DIHED      =         0.0591
 1-4 NB =         0.1526  1-4 EEL =         0.0901  VDWAALS    =         0.0000
 EELEC  =         0.0023  EHBOND  =         0.0000  RESTRAINT  =         0.0000
 EKCMT  =         1.4023  VIRIAL  =         0.3088  VOLUME     =         1.0248
                                                    Density    =         0.0000
 DV/DL  =         0.1135
 ------------------------------------------------------------------------------

      A V E R A G E S   O V E R    1000 S T E P S

 NSTEP =     2000   TIME(PS) =     204.000  TEMP(K) =   286.96  PRESS =     0.1
 Etot   =        18.4862  EKtot   =         5.1322  EPtot      =        13.3539
 BOND   =         0.6413  ANGLE   =         5.0113  DIHED      =         5.2541
 1-4 NB =         0.3522  1-4 EEL =         8.2922  VDWAALS    =        -0.0001
 EELEC  =        -6.1971  EHBOND  =         0.0000  RESTRAINT  =         0.0000
 EKCMT  =         2.3349  VIRIAL  =         1.8783  VOLUME     =    231030.9929
                                                    Density    =         0.0004
 DV/DL  =        -2.6398
 ------------------------------------------------------------------------------

      R M S  F L U C T U A T I O N S

 NSTEP =     2000   TIME(PS) =     204.000  TEMP(K) =    78.64  PRESS =     0.3
 Etot   =         1.5953  EKtot   =         1.4064  EPtot      =         0.9652
 BOND   =         0.4439  ANGLE   =         0.8454  DIHED      =         0.0591
 1-4 NB =         0.1526  1-4 EEL =         0.0901  VDWAALS    =         0.0000
 EELEC  =         0.0023  EHBOND  =         0.0000  RESTRAINT  =         0.0000
 EKCMT  =         1.4023  VIRIAL  =         0.3088  VOLUME     =         1.0248
                                                    Density    =         0.0000
 DV/DL  =         0.1135
 ------------------------------------------------------------------------------

      DV/DL, AVERAGES OVER    1000 STEPS

 NSTEP =     2000   TIME(PS) =     204.000  TEMP(K) =    78.64  PRESS =     0.0
 Etot   =         0.0000  EKtot   =         0.0000  EPtot      =        -2.6398
 BOND   =         0.0000  ANGLE   =         0.0000  DIHED      =         0.0000
 1-4 NB =         0.0000  1-4 EEL =       -10.4480  VDWAALS    =         0.0000
 EELEC  =         7.8082  EHBOND  =         0.0000  RESTRAINT  =         0.0000
 EKCMT  =         0.0000  VIRIAL  =         0.0000  VOLUME     =         0.0000
                                                    Density    =         0.0000
 DV/DL  =        -2.6398
 ------------------------------------------------------------------------------

      A V E R A G E S   O V E R    1000 S T E P S

 NSTEP =   500000   TIME(PS) =    1200.000  TEMP(K) =   283.21  PRESS =    -0.3
 Etot   =        18.5858  EKtot   =         5.0651  EPtot      =        13.5207
 BOND   =         0.8559  ANGLE   =         4.9456  DIHED      =         5.2582
 1-4 NB =         0.3817  1-4 EEL =         8.2966  VDWAALS    =        -0.0001
 EELEC  =        -6.2172  EHBOND  =         0.0000  RESTRAINT  =         0.0000
 EKCMT  =         1.0022  VIRIAL  =         2.5447  VOLUME     =    228753.6397
                                                    Density    =         0.0004
 DV/DL  =        -2.6201
 ------------------------------------------------------------------------------

      R M S  F L U C T U A T I O N S

 NSTEP =   500000   TIME(PS) =    1200.000  TEMP(K) =    96.18  PRESS =     0.1
 Etot   =         2.0249  EKtot   =         1.7202  EPtot      =         1.1010
 BOND   =         0.7162  ANGLE   =         0.9345  DIHED      =         0.0494
 1-4 NB =         0.2233  1-4 EEL =         0.1176  VDWAALS    =         0.0000
 EELEC  =         0.0018  EHBOND  =         0.0000  RESTRAINT  =         0.0000
 EKCMT  =         0.6229  VIRIAL  =         0.6303  VOLUME     =         1.5367
                                                    Density    =         0.0000
 DV/DL  =         0.1481
 ------------------------------------------------------------------------------

      A V E R A G E S   O V E R    1000 S T E P S

 NSTEP =   500000   TIME(PS) =    1200.000  TEMP(K) =   283.21  PRESS =    -0.3
 Etot   =        18.5858  EKtot   =         5.0651  EPtot      =        13.5207
 BOND   =         0.8559  ANGLE   =         4.9456  DIHED      =         5.2582
 1-4 NB =         0.3817  1-4 EEL =         8.2966  VDWAALS    =        -0.0001
 EELEC  =        -6.2172  EHBOND  =         0.0000  RESTRAINT  =         0.0000
 EKCMT  =         1.0022  VIRIAL  =         2.5447  VOLUME     =    228753.6397
                                                    Density    =         0.0004
 DV/DL  =        -2.6201
 ------------------------------------------------------------------------------

      R M S  F L U C T U A T I O N S

 NSTEP =   500000   TIME(PS) =    1200.000  TEMP(K) =    96.18  PRESS =     0.1
 Etot   =         2.0249  EKtot   =         1.7202  EPtot      =         1.1010
 BOND   =         0.7162  ANGLE   =         0.9345  DIHED      =         0.0494
 1-4 NB =         0.2233  1-4 EEL =         0.1176  VDWAALS    =         0.0000
 EELEC  =         0.0018  EHBOND  =         0.0000  RESTRAINT  =         0.0000
 EKCMT  =         0.6229  VIRIAL  =         0.6303  VOLUME     =         1.5367
                                                    Density    =         0.0000
 DV/DL  =         0.1481
 ------------------------------------------------------------------------------

      DV/DL, AVERAGES OVER    1000 STEPS

 NSTEP =   500000   TIME(PS) =    1200.000  TEMP(K) =    96.18  PRESS =     0.0
 Etot   =         0.0000  EKtot   =         0.0000  EPtot      =        -2.6201
 BOND   =         0.0000  ANGLE   =         0.0000  DIHED      =         0.0000
 1-4 NB =         0.0000  1-4 EEL =       -10.4537  VDWAALS    =         0.0000
 EELEC  =         7.8336  EHBOND  =         0.0000  RESTRAINT  =         0.0000
 EKCMT  =         0.0000  VIRIAL  =         0.0000  VOLUME     =         0.0000
                                                    Density    =         0.0000
 DV/DL  =        -2.6201
 ------------------------------------------------------------------------------

      A V E R A G E S   O V E R  500000 S T E P S

 NSTEP =   500000   TIME(PS) =    1200.000  TEMP(K) =   301.87  PRESS =    -0.1
 Etot   =        19.3095  EKtot   =         5.3989  EPtot      =        13.9106
 BOND   =         0.9983  ANGLE   =         5.1685  DIHED      =         5.2777
 1-4 NB =         0.3780  1-4 EEL =         8.2950  VDWAALS    =        -0.0001
 EELEC  =        -6.2069  EHBOND  =         0.0000  RESTRAINT  =         0.0000
 EKCMT  =         1.8497  VIRIAL  =         2.3541  VOLUME     =    229894.4059
                                                    Density    =         0.0004
 DV/DL  =        -2.6311
 ------------------------------------------------------------------------------

      R M S  F L U C T U A T I O N S

 NSTEP =   500000   TIME(PS) =    1200.000  TEMP(K) =   100.07  PRESS =     0.3
 Etot   =         2.3135  EKtot   =         1.7897  EPtot      =         1.4853
 BOND   =         0.8171  ANGLE   =         1.2008  DIHED      =         0.0864
 1-4 NB =         0.2168  1-4 EEL =         0.1294  VDWAALS    =         0.0000
 EELEC  =         0.0063  EHBOND  =         0.0000  RESTRAINT  =         0.0000
 EKCMT  =         1.4893  VIRIAL  =         0.5895  VOLUME     =       660.6608
                                                    Density    =         0.0000
 DV/DL  =         0.1632
 ------------------------------------------------------------------------------

      A V E R A G E S   O V E R  500000 S T E P S

 NSTEP =   500000   TIME(PS) =    1200.000  TEMP(K) =   301.87  PRESS =    -0.1
 Etot   =        19.3095  EKtot   =         5.3989  EPtot      =        13.9106
 BOND   =         0.9983  ANGLE   =         5.1685  DIHED      =         5.2777
 1-4 NB =         0.3780  1-4 EEL =         8.2950  VDWAALS    =        -0.0001
 EELEC  =        -6.2069  EHBOND  =         0.0000  RESTRAINT  =         0.0000
 EKCMT  =         1.8497  VIRIAL  =         2.3541  VOLUME     =    229894.4059
                                                    Density    =         0.0004
 DV/DL  =        -2.6311
 ------------------------------------------------------------------------------

      R M S  F L U C T U A T I O N S

 NSTEP =   500000   TIME(PS) =    1200.000  TEMP(K) =   100.07  PRESS =     0.3
 Etot   =         2.3135  EKtot   =         1.7897  EPtot      =         1.4853
 BOND   =         0.8171  ANGLE   =         1.2008  DIHED      =         0.0864
 1-4 NB =         0.2168  1-4 EEL =         0.1294  VDWAALS    =         0.0000
 EELEC  =         0.0063  EHBOND  =         0.0000  RESTRAINT  =         0.0000
 EKCMT  =         1.4893  VIRIAL  =         0.5895  VOLUME     =       660.6608
                                                    Density    =         0.0000
 DV/DL  =         0.1632
 ------------------------------------------------------------------------------

      DV/DL, AVERAGES OVER  500000 STEPS

 NSTEP =   500000   TIME(PS) =    1200.000  TEMP(K) =   100.07  PRESS =     0.0
 Etot   =         0.0000  EKtot   =         0.0000  EPtot      =        -2.6311
 BOND   =         0.0000  ANGLE   =         0.0000  DIHED      =         0.0000
 1-4 NB =         0.0000  1-4 EEL =       -10.4516  VDWAALS    =         0.0000
 EELEC  =         7.8205  EHBOND  =         0.0000  RESTRAINT  =         0.0000
 EKCMT  =         0.0000  VIRIAL  =         0.0000  VOLUME     =         0.0000
                                                    Density    =         0.0000
 DV/DL  =        -2.6311
 ------------------------------------------------------------------------------
