-------------------------------------------------------
          Amber 18 PMEMD                              2018
          -------------------------------------------------------

  [-O]verwriting output

File Assignments:

 Here is the input file:

 &cntrl
   nstlim=500000, nscm=1000,
   ntx=5, irest=1, ntpr=1000,
   tempi=300.0, temp0=300.0, ntt=3, gamma_ln=2.0,
   ntp=1, pres0=1.01325, taup=5.0,
   ntb=2, igb=0, cut=10.0,
   dt=0.002, ig=-1,
   ntc=2, ntf=2,
   iwrap=0,
   ntwr=1000, ntwx=50000, ntave=1000,
   ioutfm=1, ntwv=-1,
   ifsc = 0, icfe=1,
   clambda=0.43738,
   timask1=':1',
   timask2=':2', crgmask = ':2',
/

Note: ig = -1. Setting random seed to   363251 based on wallclock time in
      microseconds.

--------------------------------------------------------------------------------
   1.  RESOURCE   USE:
--------------------------------------------------------------------------------

 getting box info from netcdf restart file
 NATOM  =   20852 NTYPES =       6 NBONH =   20844 MBONA  =       6
 NTHETH =      12 MTHETA =       6 NPHIH =      24 MPHIA  =       2
 NHPARM =       0 NPARM  =       0 NNB   =   27828 NRES   =    6948
 NBONA  =       6 NTHETA =       6 NPHIA =       2 NUMBND =       5
 NUMANG =       4 NPTRA  =       3 NATYP =       6 NPHB   =       1
 IFBOX  =       2 NMXRS  =       7 IFCAP =       0 NEXTRA =       0
 NCOPY  =       0

     BOX TYPE: TRUNCATED OCTAHEDRON

--------------------------------------------------------------------------------
   2.  CONTROL  DATA  FOR  THE  RUN
--------------------------------------------------------------------------------

default_name

General flags:
     imin    =       0, nmropt  =       0

Nature and format of input:
     ntx     =       5, irest   =       1, ntrx    =       1

Nature and format of output:
     ntxo    =       2, ntpr    =    1000, ntrx    =       1, ntwr    =    1000
     iwrap   =       0, ntwx    =   50000, ntwv    =      -1, ntwe    =       0
     ioutfm  =       1, ntwprt  =       0, idecomp =       0, rbornstat=      0

Potential function:
     ntf     =       2, ntb     =       2, igb     =       0, nsnb    =      25
     ipol    =       0, gbsa    =       0, iesp    =       0
     dielc   =   1.00000, cut     =  10.00000, intdiel =   1.00000

Frozen or restrained atoms:
     ibelly  =       0, ntr     =       0

Molecular dynamics:
     nstlim  =    500000, nscm    =      1000, nrespa  =         1
     t       =   0.00000, dt      =   0.00200, vlimit  =  -1.00000

Langevin dynamics temperature regulation:
     ig      =  363251
     temp0   = 300.00000, tempi   = 300.00000, gamma_ln=   2.00000

Pressure regulation:
     ntp     =       1
     pres0   =   1.01325, comp    =  44.60000, taup    =   5.00000

SHAKE:
     ntc     =       2, jfastw  =       0
     tol     =   0.00001

Free energy options:
     icfe    =       1, ifsc    =       0, klambda =       1
     clambda =  0.4374, scalpha =  0.5000, scbeta  = 12.0000
     sceeorder =       2
     dynlmb =  0.0000 logdvdl =       0

Ewald parameters:
     verbose =       0, ew_type =       0, nbflag  =       1, use_pme =       1
     vdwmeth =       1, eedmeth =       1, netfrc  =       1
     Box X =   66.953   Box Y =   66.953   Box Z =   66.953
     Alpha =  109.471   Beta  =  109.471   Gamma =  109.471
     NFFT1 =   64       NFFT2 =   64       NFFT3 =   64
     Cutoff=   10.000   Tol   =0.100E-04
     Ewald Coefficient =  0.27511
     Interpolation order =    4
     TI Mask 1 :1; matches      7 atoms
     TI Mask 2 :2; matches      7 atoms
     TI region 1:   20845 atoms
     TI region 2:   20845 atoms
Removing charge of      -0.8188 from atom       8
Removing charge of      -0.8188 from atom       9
Removing charge of       0.8054 from atom      10
Removing charge of      -0.1021 from atom      11
Removing charge of      -0.0219 from atom      12
Removing charge of      -0.0219 from atom      13
Removing charge of      -0.0219 from atom      14
Total charge of  -0.99999900 removed from       7 atoms
     Checking for mismatched coordinates.

--------------------------------------------------------------------------------
   3.  ATOMIC COORDINATES AND VELOCITIES
--------------------------------------------------------------------------------

default_name
 begin time read from input coords =   200.000 ps

 Number of triangulated 3-point waters found:     6946

     Sum of charges for TI region  1 =  -1.00000662
     Assuming uniform neutralizing plasma

     Sum of charges for TI region  2 =  -0.00000762
     Forcing neutrality...

--------------------------------------------------------------------------------
   4.  RESULTS
 NSTEP =     1000   TIME(PS) =     202.000  TEMP(K) =   298.82  PRESS =  -954.1
 Etot   =    -64127.9767  EKtot   =     12379.0094  EPtot      =    -76506.9861
 BOND   =         0.7796  ANGLE   =         4.1564  DIHED      =         5.2802
 1-4 NB =         0.2373  1-4 EEL =         5.8737  VDWAALS    =     14319.4414
 EELEC  =    -90842.7549  EHBOND  =         0.0000  RESTRAINT  =         0.0000
 EKCMT  =      6241.6462  VIRIAL  =     10900.3577  VOLUME     =    226139.9095
                                                    Density    =         0.9193
 DV/DL  =        97.5249
 ------------------------------------------------------------------------------

      A V E R A G E S   O V E R    1000 S T E P S

 NSTEP =     1000   TIME(PS) =     202.000  TEMP(K) =   300.83  PRESS = -1200.9
 Etot   =    -63800.1027  EKtot   =     12462.2949  EPtot      =    -76262.3975
 BOND   =         1.1739  ANGLE   =         5.0586  DIHED      =         5.2827
 1-4 NB =         0.3983  1-4 EEL =         5.8880  VDWAALS    =     14048.4424
 EELEC  =    -90328.6414  EHBOND  =         0.0000  RESTRAINT  =         0.0000
 EKCMT  =      6236.7107  VIRIAL  =     12163.4092  VOLUME     =    228413.2589
                                                    Density    =         0.9102
 DV/DL  =       101.2302
 ------------------------------------------------------------------------------

      R M S  F L U C T U A T I O N S

 NSTEP =     1000   TIME(PS) =     202.000  TEMP(K) =     1.92  PRESS =   210.3
 Etot   =       159.5778  EKtot   =        79.6778  EPtot      =       177.3902
 BOND   =         0.8055  ANGLE   =         0.9909  DIHED      =         0.0760
 1-4 NB =         0.2169  1-4 EEL =         0.0979  VDWAALS    =       210.9545
 EELEC  =       348.9241  EHBOND  =         0.0000  RESTRAINT  =         0.0000
 EKCMT  =        63.7982  VIRIAL  =      1047.7952  VOLUME     =      1441.7585
                                                    Density    =         0.0057
 DV/DL  =        12.2472
 ------------------------------------------------------------------------------

      A V E R A G E S   O V E R    1000 S T E P S

 NSTEP =     1000   TIME(PS) =     202.000  TEMP(K) =   300.83  PRESS = -1200.9
 Etot   =    -63800.1027  EKtot   =     12462.2949  EPtot      =    -76262.3975
 BOND   =         1.1739  ANGLE   =         5.0586  DIHED      =         5.2827
 1-4 NB =         0.3983  1-4 EEL =         5.8880  VDWAALS    =     14048.4424
 EELEC  =    -90328.6414  EHBOND  =         0.0000  RESTRAINT  =         0.0000
 EKCMT  =      6236.7107  VIRIAL  =     12163.4092  VOLUME     =    228413.2589
                                                    Density    =         0.9102
 DV/DL  =       101.2302
 ------------------------------------------------------------------------------

      R M S  F L U C T U A T I O N S

 NSTEP =     1000   TIME(PS) =     202.000  TEMP(K) =     1.92  PRESS =   210.3
 Etot   =       159.5778  EKtot   =        79.6778  EPtot      =       177.3902
 BOND   =         0.8055  ANGLE   =         0.9909  DIHED      =         0.0760
 1-4 NB =         0.2169  1-4 EEL =         0.0979  VDWAALS    =       210.9545
 EELEC  =       348.9241  EHBOND  =         0.0000  RESTRAINT  =         0.0000
 EKCMT  =        63.7982  VIRIAL  =      1047.7952  VOLUME     =      1441.7585
                                                    Density    =         0.0057
 DV/DL  =        12.2472
 ------------------------------------------------------------------------------

      DV/DL, AVERAGES OVER    1000 STEPS

 NSTEP =     1000   TIME(PS) =     202.000  TEMP(K) =     1.92  PRESS =     0.0
 Etot   =         0.0000  EKtot   =         0.0000  EPtot      =       101.2302
 BOND   =         0.0000  ANGLE   =         0.0000  DIHED      =         0.0000
 1-4 NB =         0.0000  1-4 EEL =       -10.4652  VDWAALS    =         0.0000
 EELEC  =       111.6954  EHBOND  =         0.0000  RESTRAINT  =         0.0000
 EKCMT  =         0.0000  VIRIAL  =         0.0000  VOLUME     =         0.0000
                                                    Density    =         0.0000
 DV/DL  =       101.2302
 ------------------------------------------------------------------------------

      A V E R A G E S   O V E R    1000 S T E P S

 NSTEP =     2000   TIME(PS) =     204.000  TEMP(K) =   299.41  PRESS = -1018.6
 Etot   =    -64139.8224  EKtot   =     12403.6789  EPtot      =    -76543.5012
 BOND   =         0.8953  ANGLE   =         5.0387  DIHED      =         5.2966
 1-4 NB =         0.3803  1-4 EEL =         5.8887  VDWAALS    =     14143.6706
 EELEC  =    -90704.6713  EHBOND  =         0.0000  RESTRAINT  =         0.0000
 EKCMT  =      6221.6806  VIRIAL  =     11150.1017  VOLUME     =    224023.5601
                                                    Density    =         0.9281
 DV/DL  =        99.7809
 ------------------------------------------------------------------------------

      R M S  F L U C T U A T I O N S

 NSTEP =     2000   TIME(PS) =     204.000  TEMP(K) =     1.91  PRESS =   120.9
 Etot   =        83.6738  EKtot   =        79.0694  EPtot      =        87.0456
 BOND   =         0.6502  ANGLE   =         0.9094  DIHED      =         0.0964
 1-4 NB =         0.2026  1-4 EEL =         0.0866  VDWAALS    =        97.8449
 EELEC  =       126.5115  EHBOND  =         0.0000  RESTRAINT  =         0.0000
 EKCMT  =        56.4770  VIRIAL  =       603.9267  VOLUME     =      1193.8274
                                                    Density    =         0.0049
 DV/DL  =        10.2962
 ------------------------------------------------------------------------------

      A V E R A G E S   O V E R    1000 S T E P S

 NSTEP =     2000   TIME(PS) =     204.000  TEMP(K) =   299.41  PRESS = -1018.6
 Etot   =    -64139.8224  EKtot   =     12403.6789  EPtot      =    -76543.5012
 BOND   =         0.8953  ANGLE   =         5.0387  DIHED      =         5.2966
 1-4 NB =         0.3803  1-4 EEL =         5.8887  VDWAALS    =     14143.6706
 EELEC  =    -90704.6713  EHBOND  =         0.0000  RESTRAINT  =         0.0000
 EKCMT  =      6221.6806  VIRIAL  =     11150.1017  VOLUME     =    224023.5601
                                                    Density    =         0.9281
 DV/DL  =        99.7809
 ------------------------------------------------------------------------------

      R M S  F L U C T U A T I O N S

 NSTEP =     2000   TIME(PS) =     204.000  TEMP(K) =     1.91  PRESS =   120.9
 Etot   =        83.6738  EKtot   =        79.0694  EPtot      =        87.0456
 BOND   =         0.6502  ANGLE   =         0.9094  DIHED      =         0.0964
 1-4 NB =         0.2026  1-4 EEL =         0.0866  VDWAALS    =        97.8449
 EELEC  =       126.5115  EHBOND  =         0.0000  RESTRAINT  =         0.0000
 EKCMT  =        56.4770  VIRIAL  =       603.9267  VOLUME     =      1193.8274
                                                    Density    =         0.0049
 DV/DL  =        10.2962
 ------------------------------------------------------------------------------

      DV/DL, AVERAGES OVER    1000 STEPS

 NSTEP =     2000   TIME(PS) =     204.000  TEMP(K) =     1.91  PRESS =     0.0
 Etot   =         0.0000  EKtot   =         0.0000  EPtot      =        99.7809
 BOND   =         0.0000  ANGLE   =         0.0000  DIHED      =         0.0000
 1-4 NB =         0.0000  1-4 EEL =       -10.4665  VDWAALS    =         0.0000
 EELEC  =       110.2475  EHBOND  =         0.0000  RESTRAINT  =         0.0000
 EKCMT  =         0.0000  VIRIAL  =         0.0000  VOLUME     =         0.0000
                                                    Density    =         0.0000
 DV/DL  =        99.7809
 ------------------------------------------------------------------------------

      A V E R A G E S   O V E R    1000 S T E P S

 NSTEP =   500000   TIME(PS) =    1200.000  TEMP(K) =   301.06  PRESS =   -25.5
 Etot   =    -64830.0075  EKtot   =     12472.1069  EPtot      =    -77302.1143
 BOND   =         0.7897  ANGLE   =         4.9876  DIHED      =         5.2852
 1-4 NB =         0.3910  1-4 EEL =         5.8876  VDWAALS    =     14560.5655
 EELEC  =    -91880.0210  EHBOND  =         0.0000  RESTRAINT  =         0.0000
 EKCMT  =      6253.2965  VIRIAL  =      6367.7900  VOLUME     =    208335.2475
                                                    Density    =         0.9979
 DV/DL  =        96.8287
 ------------------------------------------------------------------------------

      R M S  F L U C T U A T I O N S

 NSTEP =   500000   TIME(PS) =    1200.000  TEMP(K) =     2.26  PRESS =   147.0
 Etot   =       128.7002  EKtot   =        93.8221  EPtot      =       111.9150
 BOND   =         0.5696  ANGLE   =         0.9365  DIHED      =         0.0997
 1-4 NB =         0.1998  1-4 EEL =         0.0736  VDWAALS    =       140.6694
 EELEC  =       201.2589  EHBOND  =         0.0000  RESTRAINT  =         0.0000
 EKCMT  =        68.5482  VIRIAL  =       638.0374  VOLUME     =        37.3536
                                                    Density    =         0.0002
 DV/DL  =         9.0700
 ------------------------------------------------------------------------------

      A V E R A G E S   O V E R    1000 S T E P S

 NSTEP =   500000   TIME(PS) =    1200.000  TEMP(K) =   301.06  PRESS =   -25.5
 Etot   =    -64830.0075  EKtot   =     12472.1069  EPtot      =    -77302.1143
 BOND   =         0.7897  ANGLE   =         4.9876  DIHED      =         5.2852
 1-4 NB =         0.3910  1-4 EEL =         5.8876  VDWAALS    =     14560.5655
 EELEC  =    -91880.0210  EHBOND  =         0.0000  RESTRAINT  =         0.0000
 EKCMT  =      6253.2965  VIRIAL  =      6367.7900  VOLUME     =    208335.2475
                                                    Density    =         0.9979
 DV/DL  =        96.8287
 ------------------------------------------------------------------------------

      R M S  F L U C T U A T I O N S

 NSTEP =   500000   TIME(PS) =    1200.000  TEMP(K) =     2.26  PRESS =   147.0
 Etot   =       128.7002  EKtot   =        93.8221  EPtot      =       111.9150
 BOND   =         0.5696  ANGLE   =         0.9365  DIHED      =         0.0997
 1-4 NB =         0.1998  1-4 EEL =         0.0736  VDWAALS    =       140.6694
 EELEC  =       201.2589  EHBOND  =         0.0000  RESTRAINT  =         0.0000
 EKCMT  =        68.5482  VIRIAL  =       638.0374  VOLUME     =        37.3536
                                                    Density    =         0.0002
 DV/DL  =         9.0700
 ------------------------------------------------------------------------------

      DV/DL, AVERAGES OVER    1000 STEPS

 NSTEP =   500000   TIME(PS) =    1200.000  TEMP(K) =     2.26  PRESS =     0.0
 Etot   =         0.0000  EKtot   =         0.0000  EPtot      =        96.8287
 BOND   =         0.0000  ANGLE   =         0.0000  DIHED      =         0.0000
 1-4 NB =         0.0000  1-4 EEL =       -10.4646  VDWAALS    =         0.0000
 EELEC  =       107.2933  EHBOND  =         0.0000  RESTRAINT  =         0.0000
 EKCMT  =         0.0000  VIRIAL  =         0.0000  VOLUME     =         0.0000
                                                    Density    =         0.0000
 DV/DL  =        96.8287
 ------------------------------------------------------------------------------

      A V E R A G E S   O V E R  500000 S T E P S

 NSTEP =   500000   TIME(PS) =    1200.000  TEMP(K) =   300.11  PRESS =   -10.6
 Etot   =    -64890.6675  EKtot   =     12432.5112  EPtot      =    -77323.1787
 BOND   =         0.9789  ANGLE   =         5.1763  DIHED      =         5.2827
 1-4 NB =         0.4033  1-4 EEL =         5.8909  VDWAALS    =     14605.3582
 EELEC  =    -91946.2690  EHBOND  =         0.0000  RESTRAINT  =         0.0000
 EKCMT  =      6239.5955  VIRIAL  =      6290.2462  VOLUME     =    208777.1884
                                                    Density    =         0.9958
 DV/DL  =        97.8526
 ------------------------------------------------------------------------------

      R M S  F L U C T U A T I O N S

 NSTEP =   500000   TIME(PS) =    1200.000  TEMP(K) =     2.08  PRESS =   167.8
 Etot   =       177.1769  EKtot   =        86.1194  EPtot      =       153.1557
 BOND   =         0.8007  ANGLE   =         1.2205  DIHED      =         0.0932
 1-4 NB =         0.2329  1-4 EEL =         0.0946  VDWAALS    =       148.1264
 EELEC  =       252.5666  EHBOND  =         0.0000  RESTRAINT  =         0.0000
 EKCMT  =        61.1855  VIRIAL  =       770.0618  VOLUME     =      1396.1665
                                                    Density    =         0.0062
 DV/DL  =        10.9297
 ------------------------------------------------------------------------------

      A V E R A G E S   O V E R  500000 S T E P S

 NSTEP =   500000   TIME(PS) =    1200.000  TEMP(K) =   300.11  PRESS =   -10.6
 Etot   =    -64890.6675  EKtot   =     12432.5112  EPtot      =    -77323.1787
 BOND   =         0.9789  ANGLE   =         5.1763  DIHED      =         5.2827
 1-4 NB =         0.4033  1-4 EEL =         5.8909  VDWAALS    =     14605.3582
 EELEC  =    -91946.2690  EHBOND  =         0.0000  RESTRAINT  =         0.0000
 EKCMT  =      6239.5955  VIRIAL  =      6290.2462  VOLUME     =    208777.1884
                                                    Density    =         0.9958
 DV/DL  =        97.8526
 ------------------------------------------------------------------------------

      R M S  F L U C T U A T I O N S

 NSTEP =   500000   TIME(PS) =    1200.000  TEMP(K) =     2.08  PRESS =   167.8
 Etot   =       177.1769  EKtot   =        86.1194  EPtot      =       153.1557
 BOND   =         0.8007  ANGLE   =         1.2205  DIHED      =         0.0932
 1-4 NB =         0.2329  1-4 EEL =         0.0946  VDWAALS    =       148.1264
 EELEC  =       252.5666  EHBOND  =         0.0000  RESTRAINT  =         0.0000
 EKCMT  =        61.1855  VIRIAL  =       770.0618  VOLUME     =      1396.1665
                                                    Density    =         0.0062
 DV/DL  =        10.9297
 ------------------------------------------------------------------------------

      DV/DL, AVERAGES OVER  500000 STEPS

 NSTEP =   500000   TIME(PS) =    1200.000  TEMP(K) =     2.08  PRESS =     0.0
 Etot   =         0.0000  EKtot   =         0.0000  EPtot      =        97.8526
 BOND   =         0.0000  ANGLE   =         0.0000  DIHED      =         0.0000
 1-4 NB =         0.0000  1-4 EEL =       -10.4706  VDWAALS    =         0.0000
 EELEC  =       108.3232  EHBOND  =         0.0000  RESTRAINT  =         0.0000
 EKCMT  =         0.0000  VIRIAL  =         0.0000  VOLUME     =         0.0000
                                                    Density    =         0.0000
 DV/DL  =        97.8526
 ------------------------------------------------------------------------------
