-------------------------------------------------------
          Amber 18 PMEMD                              2018
          -------------------------------------------------------

  [-O]verwriting output

File Assignments:

 Here is the input file:

 &cntrl
   nstlim=500000, nscm=1000,
   ntx=5, irest=1, ntpr=1000,
   tempi=300.0, temp0=300.0, ntt=3, gamma_ln=2.0,
   ntp=1, pres0=1.01325, taup=5.0,
   ntb=2, igb=0, cut=10.0,
   dt=0.002, ig=-1,
   ntc=2, ntf=2,
   iwrap=0,
   ntwr=1000, ntwx=50000, ntave=1000,
   ioutfm=1, ntwv=-1,
   ifsc = 0, icfe=1,
   clambda=0.68392,
   timask1=':1',
   timask2=':2', crgmask = ':2',
/

Note: ig = -1. Setting random seed to   764700 based on wallclock time in
      microseconds.

--------------------------------------------------------------------------------
   1.  RESOURCE   USE:
--------------------------------------------------------------------------------

 getting box info from netcdf restart file
 NATOM  =   20852 NTYPES =       6 NBONH =   20844 MBONA  =       6
 NTHETH =      12 MTHETA =       6 NPHIH =      24 MPHIA  =       2
 NHPARM =       0 NPARM  =       0 NNB   =   27828 NRES   =    6948
 NBONA  =       6 NTHETA =       6 NPHIA =       2 NUMBND =       5
 NUMANG =       4 NPTRA  =       3 NATYP =       6 NPHB   =       1
 IFBOX  =       2 NMXRS  =       7 IFCAP =       0 NEXTRA =       0
 NCOPY  =       0

     BOX TYPE: TRUNCATED OCTAHEDRON

--------------------------------------------------------------------------------
   2.  CONTROL  DATA  FOR  THE  RUN
--------------------------------------------------------------------------------

default_name

General flags:
     imin    =       0, nmropt  =       0

Nature and format of input:
     ntx     =       5, irest   =       1, ntrx    =       1

Nature and format of output:
     ntxo    =       2, ntpr    =    1000, ntrx    =       1, ntwr    =    1000
     iwrap   =       0, ntwx    =   50000, ntwv    =      -1, ntwe    =       0
     ioutfm  =       1, ntwprt  =       0, idecomp =       0, rbornstat=      0

Potential function:
     ntf     =       2, ntb     =       2, igb     =       0, nsnb    =      25
     ipol    =       0, gbsa    =       0, iesp    =       0
     dielc   =   1.00000, cut     =  10.00000, intdiel =   1.00000

Frozen or restrained atoms:
     ibelly  =       0, ntr     =       0

Molecular dynamics:
     nstlim  =    500000, nscm    =      1000, nrespa  =         1
     t       =   0.00000, dt      =   0.00200, vlimit  =  -1.00000

Langevin dynamics temperature regulation:
     ig      =  764700
     temp0   = 300.00000, tempi   = 300.00000, gamma_ln=   2.00000

Pressure regulation:
     ntp     =       1
     pres0   =   1.01325, comp    =  44.60000, taup    =   5.00000

SHAKE:
     ntc     =       2, jfastw  =       0
     tol     =   0.00001

Free energy options:
     icfe    =       1, ifsc    =       0, klambda =       1
     clambda =  0.6839, scalpha =  0.5000, scbeta  = 12.0000
     sceeorder =       2
     dynlmb =  0.0000 logdvdl =       0

Ewald parameters:
     verbose =       0, ew_type =       0, nbflag  =       1, use_pme =       1
     vdwmeth =       1, eedmeth =       1, netfrc  =       1
     Box X =   66.953   Box Y =   66.953   Box Z =   66.953
     Alpha =  109.471   Beta  =  109.471   Gamma =  109.471
     NFFT1 =   64       NFFT2 =   64       NFFT3 =   64
     Cutoff=   10.000   Tol   =0.100E-04
     Ewald Coefficient =  0.27511
     Interpolation order =    4
     TI Mask 1 :1; matches      7 atoms
     TI Mask 2 :2; matches      7 atoms
     TI region 1:   20845 atoms
     TI region 2:   20845 atoms
Removing charge of      -0.8188 from atom       8
Removing charge of      -0.8188 from atom       9
Removing charge of       0.8054 from atom      10
Removing charge of      -0.1021 from atom      11
Removing charge of      -0.0219 from atom      12
Removing charge of      -0.0219 from atom      13
Removing charge of      -0.0219 from atom      14
Total charge of  -0.99999900 removed from       7 atoms
     Checking for mismatched coordinates.

--------------------------------------------------------------------------------
   3.  ATOMIC COORDINATES AND VELOCITIES
--------------------------------------------------------------------------------

default_name
 begin time read from input coords =   200.000 ps

 Number of triangulated 3-point waters found:     6946

     Sum of charges for TI region  1 =  -1.00000662
     Assuming uniform neutralizing plasma

     Sum of charges for TI region  2 =  -0.00000762
     Forcing neutrality...

--------------------------------------------------------------------------------
   4.  RESULTS
 NSTEP =     1000   TIME(PS) =     202.000  TEMP(K) =   300.54  PRESS =  -986.2
 Etot   =    -63945.3587  EKtot   =     12450.5501  EPtot      =    -76395.9088
 BOND   =         1.0667  ANGLE   =         4.4484  DIHED      =         5.3472
 1-4 NB =         0.3936  1-4 EEL =         3.3488  VDWAALS    =     14101.2016
 EELEC  =    -90511.7152  EHBOND  =         0.0000  RESTRAINT  =         0.0000
 EKCMT  =      6248.7295  VIRIAL  =     11074.1304  VOLUME     =    226605.3612
                                                    Density    =         0.9175
 DV/DL  =        32.5857
 ------------------------------------------------------------------------------

      A V E R A G E S   O V E R    1000 S T E P S

 NSTEP =     1000   TIME(PS) =     202.000  TEMP(K) =   300.11  PRESS = -1085.6
 Etot   =    -63793.2810  EKtot   =     12432.5579  EPtot      =    -76225.8389
 BOND   =         0.9184  ANGLE   =         5.4013  DIHED      =         5.2816
 1-4 NB =         0.4597  1-4 EEL =         3.3195  VDWAALS    =     14052.1420
 EELEC  =    -90293.3615  EHBOND  =         0.0000  RESTRAINT  =         0.0000
 EKCMT  =      6234.5182  VIRIAL  =     11598.0554  VOLUME     =    228635.9449
                                                    Density    =         0.9093
 DV/DL  =        41.4109
 ------------------------------------------------------------------------------

      R M S  F L U C T U A T I O N S

 NSTEP =     1000   TIME(PS) =     202.000  TEMP(K) =     1.77  PRESS =   204.9
 Etot   =       103.6399  EKtot   =        73.2807  EPtot      =       119.5848
 BOND   =         0.6671  ANGLE   =         1.0955  DIHED      =         0.0930
 1-4 NB =         0.2504  1-4 EEL =         0.0454  VDWAALS    =       190.0902
 EELEC  =       277.2159  EHBOND  =         0.0000  RESTRAINT  =         0.0000
 EKCMT  =        49.7564  VIRIAL  =      1027.3678  VOLUME     =      1244.6048
                                                    Density    =         0.0049
 DV/DL  =         9.9092
 ------------------------------------------------------------------------------

      A V E R A G E S   O V E R    1000 S T E P S

 NSTEP =     1000   TIME(PS) =     202.000  TEMP(K) =   300.11  PRESS = -1085.6
 Etot   =    -63793.2810  EKtot   =     12432.5579  EPtot      =    -76225.8389
 BOND   =         0.9184  ANGLE   =         5.4013  DIHED      =         5.2816
 1-4 NB =         0.4597  1-4 EEL =         3.3195  VDWAALS    =     14052.1420
 EELEC  =    -90293.3615  EHBOND  =         0.0000  RESTRAINT  =         0.0000
 EKCMT  =      6234.5182  VIRIAL  =     11598.0554  VOLUME     =    228635.9449
                                                    Density    =         0.9093
 DV/DL  =        41.4109
 ------------------------------------------------------------------------------

      R M S  F L U C T U A T I O N S

 NSTEP =     1000   TIME(PS) =     202.000  TEMP(K) =     1.77  PRESS =   204.9
 Etot   =       103.6399  EKtot   =        73.2807  EPtot      =       119.5848
 BOND   =         0.6671  ANGLE   =         1.0955  DIHED      =         0.0930
 1-4 NB =         0.2504  1-4 EEL =         0.0454  VDWAALS    =       190.0902
 EELEC  =       277.2159  EHBOND  =         0.0000  RESTRAINT  =         0.0000
 EKCMT  =        49.7564  VIRIAL  =      1027.3678  VOLUME     =      1244.6048
                                                    Density    =         0.0049
 DV/DL  =         9.9092
 ------------------------------------------------------------------------------

      DV/DL, AVERAGES OVER    1000 STEPS

 NSTEP =     1000   TIME(PS) =     202.000  TEMP(K) =     1.77  PRESS =     0.0
 Etot   =         0.0000  EKtot   =         0.0000  EPtot      =        41.4109
 BOND   =         0.0000  ANGLE   =         0.0000  DIHED      =         0.0000
 1-4 NB =         0.0000  1-4 EEL =       -10.5021  VDWAALS    =         0.0000
 EELEC  =        51.9130  EHBOND  =         0.0000  RESTRAINT  =         0.0000
 EKCMT  =         0.0000  VIRIAL  =         0.0000  VOLUME     =         0.0000
                                                    Density    =         0.0000
 DV/DL  =        41.4109
 ------------------------------------------------------------------------------

      A V E R A G E S   O V E R    1000 S T E P S

 NSTEP =     2000   TIME(PS) =     204.000  TEMP(K) =   300.34  PRESS =  -875.2
 Etot   =    -64063.0577  EKtot   =     12442.0067  EPtot      =    -76505.0644
 BOND   =         0.5046  ANGLE   =         5.2650  DIHED      =         5.2534
 1-4 NB =         0.4534  1-4 EEL =         3.3165  VDWAALS    =     14188.1406
 EELEC  =    -90707.9978  EHBOND  =         0.0000  RESTRAINT  =         0.0000
 EKCMT  =      6254.7595  VIRIAL  =     10503.3574  VOLUME     =    224796.2135
                                                    Density    =         0.9249
 DV/DL  =        43.9317
 ------------------------------------------------------------------------------

      R M S  F L U C T U A T I O N S

 NSTEP =     2000   TIME(PS) =     204.000  TEMP(K) =     1.76  PRESS =   148.2
 Etot   =        93.0529  EKtot   =        72.8646  EPtot      =        91.0322
 BOND   =         0.3938  ANGLE   =         0.9796  DIHED      =         0.0483
 1-4 NB =         0.2627  1-4 EEL =         0.0388  VDWAALS    =       124.7182
 EELEC  =       133.7506  EHBOND  =         0.0000  RESTRAINT  =         0.0000
 EKCMT  =        48.1585  VIRIAL  =       723.0357  VOLUME     =      1029.2846
                                                    Density    =         0.0042
 DV/DL  =        10.2922
 ------------------------------------------------------------------------------

      A V E R A G E S   O V E R    1000 S T E P S

 NSTEP =     2000   TIME(PS) =     204.000  TEMP(K) =   300.34  PRESS =  -875.2
 Etot   =    -64063.0577  EKtot   =     12442.0067  EPtot      =    -76505.0644
 BOND   =         0.5046  ANGLE   =         5.2650  DIHED      =         5.2534
 1-4 NB =         0.4534  1-4 EEL =         3.3165  VDWAALS    =     14188.1406
 EELEC  =    -90707.9978  EHBOND  =         0.0000  RESTRAINT  =         0.0000
 EKCMT  =      6254.7595  VIRIAL  =     10503.3574  VOLUME     =    224796.2135
                                                    Density    =         0.9249
 DV/DL  =        43.9317
 ------------------------------------------------------------------------------

      R M S  F L U C T U A T I O N S

 NSTEP =     2000   TIME(PS) =     204.000  TEMP(K) =     1.76  PRESS =   148.2
 Etot   =        93.0529  EKtot   =        72.8646  EPtot      =        91.0322
 BOND   =         0.3938  ANGLE   =         0.9796  DIHED      =         0.0483
 1-4 NB =         0.2627  1-4 EEL =         0.0388  VDWAALS    =       124.7182
 EELEC  =       133.7506  EHBOND  =         0.0000  RESTRAINT  =         0.0000
 EKCMT  =        48.1585  VIRIAL  =       723.0357  VOLUME     =      1029.2846
                                                    Density    =         0.0042
 DV/DL  =        10.2922
 ------------------------------------------------------------------------------

      DV/DL, AVERAGES OVER    1000 STEPS

 NSTEP =     2000   TIME(PS) =     204.000  TEMP(K) =     1.76  PRESS =     0.0
 Etot   =         0.0000  EKtot   =         0.0000  EPtot      =        43.9317
 BOND   =         0.0000  ANGLE   =         0.0000  DIHED      =         0.0000
 1-4 NB =         0.0000  1-4 EEL =       -10.4926  VDWAALS    =         0.0000
 EELEC  =        54.4243  EHBOND  =         0.0000  RESTRAINT  =         0.0000
 EKCMT  =         0.0000  VIRIAL  =         0.0000  VOLUME     =         0.0000
                                                    Density    =         0.0000
 DV/DL  =        43.9317
 ------------------------------------------------------------------------------

      A V E R A G E S   O V E R    1000 S T E P S

 NSTEP =   500000   TIME(PS) =    1200.000  TEMP(K) =   301.14  PRESS =    14.2
 Etot   =    -64761.7002  EKtot   =     12475.1242  EPtot      =    -77236.8244
 BOND   =         0.8746  ANGLE   =         5.0981  DIHED      =         5.2567
 1-4 NB =         0.4274  1-4 EEL =         3.3180  VDWAALS    =     14605.2273
 EELEC  =    -91857.0264  EHBOND  =         0.0000  RESTRAINT  =         0.0000
 EKCMT  =      6265.8368  VIRIAL  =      6201.7514  VOLUME     =    208703.0257
                                                    Density    =         0.9962
 DV/DL  =        60.5562
 ------------------------------------------------------------------------------

      R M S  F L U C T U A T I O N S

 NSTEP =   500000   TIME(PS) =    1200.000  TEMP(K) =     1.74  PRESS =   149.2
 Etot   =       109.3960  EKtot   =        72.0269  EPtot      =        96.2056
 BOND   =         0.6439  ANGLE   =         0.9805  DIHED      =         0.0517
 1-4 NB =         0.1992  1-4 EEL =         0.0397  VDWAALS    =       160.2039
 EELEC  =       225.3426  EHBOND  =         0.0000  RESTRAINT  =         0.0000
 EKCMT  =        53.1545  VIRIAL  =       671.8935  VOLUME     =        40.2323
                                                    Density    =         0.0002
 DV/DL  =        10.5969
 ------------------------------------------------------------------------------

      A V E R A G E S   O V E R    1000 S T E P S

 NSTEP =   500000   TIME(PS) =    1200.000  TEMP(K) =   301.14  PRESS =    14.2
 Etot   =    -64761.7002  EKtot   =     12475.1242  EPtot      =    -77236.8244
 BOND   =         0.8746  ANGLE   =         5.0981  DIHED      =         5.2567
 1-4 NB =         0.4274  1-4 EEL =         3.3180  VDWAALS    =     14605.2273
 EELEC  =    -91857.0264  EHBOND  =         0.0000  RESTRAINT  =         0.0000
 EKCMT  =      6265.8368  VIRIAL  =      6201.7514  VOLUME     =    208703.0257
                                                    Density    =         0.9962
 DV/DL  =        60.5562
 ------------------------------------------------------------------------------

      R M S  F L U C T U A T I O N S

 NSTEP =   500000   TIME(PS) =    1200.000  TEMP(K) =     1.74  PRESS =   149.2
 Etot   =       109.3960  EKtot   =        72.0269  EPtot      =        96.2056
 BOND   =         0.6439  ANGLE   =         0.9805  DIHED      =         0.0517
 1-4 NB =         0.1992  1-4 EEL =         0.0397  VDWAALS    =       160.2039
 EELEC  =       225.3426  EHBOND  =         0.0000  RESTRAINT  =         0.0000
 EKCMT  =        53.1545  VIRIAL  =       671.8935  VOLUME     =        40.2323
                                                    Density    =         0.0002
 DV/DL  =        10.5969
 ------------------------------------------------------------------------------

      DV/DL, AVERAGES OVER    1000 STEPS

 NSTEP =   500000   TIME(PS) =    1200.000  TEMP(K) =     1.74  PRESS =     0.0
 Etot   =         0.0000  EKtot   =         0.0000  EPtot      =        60.5562
 BOND   =         0.0000  ANGLE   =         0.0000  DIHED      =         0.0000
 1-4 NB =         0.0000  1-4 EEL =       -10.4975  VDWAALS    =         0.0000
 EELEC  =        71.0537  EHBOND  =         0.0000  RESTRAINT  =         0.0000
 EKCMT  =         0.0000  VIRIAL  =         0.0000  VOLUME     =         0.0000
                                                    Density    =         0.0000
 DV/DL  =        60.5562
 ------------------------------------------------------------------------------

      A V E R A G E S   O V E R  500000 S T E P S

 NSTEP =   500000   TIME(PS) =    1200.000  TEMP(K) =   300.17  PRESS =   -10.4
 Etot   =    -64862.1128  EKtot   =     12435.0619  EPtot      =    -77297.1747
 BOND   =         0.9541  ANGLE   =         5.1604  DIHED      =         5.2814
 1-4 NB =         0.4447  1-4 EEL =         3.3184  VDWAALS    =     14601.0561
 EELEC  =    -91913.3897  EHBOND  =         0.0000  RESTRAINT  =         0.0000
 EKCMT  =      6241.7376  VIRIAL  =      6291.2679  VOLUME     =    208831.4415
                                                    Density    =         0.9956
 DV/DL  =        53.7826
 ------------------------------------------------------------------------------

      R M S  F L U C T U A T I O N S

 NSTEP =   500000   TIME(PS) =    1200.000  TEMP(K) =     2.06  PRESS =   163.8
 Etot   =       173.5348  EKtot   =        85.1918  EPtot      =       151.7427
 BOND   =         0.7760  ANGLE   =         1.2029  DIHED      =         0.0903
 1-4 NB =         0.2573  1-4 EEL =         0.0536  VDWAALS    =       148.5476
 EELEC  =       252.1331  EHBOND  =         0.0000  RESTRAINT  =         0.0000
 EKCMT  =        60.9244  VIRIAL  =       750.7241  VOLUME     =      1528.1539
                                                    Density    =         0.0068
 DV/DL  =        10.8540
 ------------------------------------------------------------------------------

      A V E R A G E S   O V E R  500000 S T E P S

 NSTEP =   500000   TIME(PS) =    1200.000  TEMP(K) =   300.17  PRESS =   -10.4
 Etot   =    -64862.1128  EKtot   =     12435.0619  EPtot      =    -77297.1747
 BOND   =         0.9541  ANGLE   =         5.1604  DIHED      =         5.2814
 1-4 NB =         0.4447  1-4 EEL =         3.3184  VDWAALS    =     14601.0561
 EELEC  =    -91913.3897  EHBOND  =         0.0000  RESTRAINT  =         0.0000
 EKCMT  =      6241.7376  VIRIAL  =      6291.2679  VOLUME     =    208831.4415
                                                    Density    =         0.9956
 DV/DL  =        53.7826
 ------------------------------------------------------------------------------

      R M S  F L U C T U A T I O N S

 NSTEP =   500000   TIME(PS) =    1200.000  TEMP(K) =     2.06  PRESS =   163.8
 Etot   =       173.5348  EKtot   =        85.1918  EPtot      =       151.7427
 BOND   =         0.7760  ANGLE   =         1.2029  DIHED      =         0.0903
 1-4 NB =         0.2573  1-4 EEL =         0.0536  VDWAALS    =       148.5476
 EELEC  =       252.1331  EHBOND  =         0.0000  RESTRAINT  =         0.0000
 EKCMT  =        60.9244  VIRIAL  =       750.7241  VOLUME     =      1528.1539
                                                    Density    =         0.0068
 DV/DL  =        10.8540
 ------------------------------------------------------------------------------

      DV/DL, AVERAGES OVER  500000 STEPS

 NSTEP =   500000   TIME(PS) =    1200.000  TEMP(K) =     2.06  PRESS =     0.0
 Etot   =         0.0000  EKtot   =         0.0000  EPtot      =        53.7826
 BOND   =         0.0000  ANGLE   =         0.0000  DIHED      =         0.0000
 1-4 NB =         0.0000  1-4 EEL =       -10.4985  VDWAALS    =         0.0000
 EELEC  =        64.2811  EHBOND  =         0.0000  RESTRAINT  =         0.0000
 EKCMT  =         0.0000  VIRIAL  =         0.0000  VOLUME     =         0.0000
                                                    Density    =         0.0000
 DV/DL  =        53.7826
 ------------------------------------------------------------------------------
