-------------------------------------------------------
          Amber 18 PMEMD                              2018
          -------------------------------------------------------

  [-O]verwriting output

File Assignments:

 Here is the input file:

 &cntrl
   nstlim=500000, nscm=1000,
   ntx=5, irest=1, ntpr=1000,
   tempi=300.0, temp0=300.0, ntt=3, gamma_ln=2.0,
   ntp=1, pres0=1.01325, taup=5.0,
   ntb=2, igb=0, cut=10.0,
   dt=0.002, ig=-1,
   ntc=2, ntf=2,
   iwrap=0,
   ntwr=1000, ntwx=50000, ntave=1000,
   ioutfm=1, ntwv=-1,
   ifsc = 0, icfe=1,
   clambda=0.88495,
   timask1=':1',
   timask2=':2', crgmask = ':2',
/

Note: ig = -1. Setting random seed to   363251 based on wallclock time in
      microseconds.

--------------------------------------------------------------------------------
   1.  RESOURCE   USE:
--------------------------------------------------------------------------------

 getting box info from netcdf restart file
 NATOM  =   20852 NTYPES =       6 NBONH =   20844 MBONA  =       6
 NTHETH =      12 MTHETA =       6 NPHIH =      24 MPHIA  =       2
 NHPARM =       0 NPARM  =       0 NNB   =   27828 NRES   =    6948
 NBONA  =       6 NTHETA =       6 NPHIA =       2 NUMBND =       5
 NUMANG =       4 NPTRA  =       3 NATYP =       6 NPHB   =       1
 IFBOX  =       2 NMXRS  =       7 IFCAP =       0 NEXTRA =       0
 NCOPY  =       0

     BOX TYPE: TRUNCATED OCTAHEDRON

--------------------------------------------------------------------------------
   2.  CONTROL  DATA  FOR  THE  RUN
--------------------------------------------------------------------------------

default_name

General flags:
     imin    =       0, nmropt  =       0

Nature and format of input:
     ntx     =       5, irest   =       1, ntrx    =       1

Nature and format of output:
     ntxo    =       2, ntpr    =    1000, ntrx    =       1, ntwr    =    1000
     iwrap   =       0, ntwx    =   50000, ntwv    =      -1, ntwe    =       0
     ioutfm  =       1, ntwprt  =       0, idecomp =       0, rbornstat=      0

Potential function:
     ntf     =       2, ntb     =       2, igb     =       0, nsnb    =      25
     ipol    =       0, gbsa    =       0, iesp    =       0
     dielc   =   1.00000, cut     =  10.00000, intdiel =   1.00000

Frozen or restrained atoms:
     ibelly  =       0, ntr     =       0

Molecular dynamics:
     nstlim  =    500000, nscm    =      1000, nrespa  =         1
     t       =   0.00000, dt      =   0.00200, vlimit  =  -1.00000

Langevin dynamics temperature regulation:
     ig      =  363251
     temp0   = 300.00000, tempi   = 300.00000, gamma_ln=   2.00000

Pressure regulation:
     ntp     =       1
     pres0   =   1.01325, comp    =  44.60000, taup    =   5.00000

SHAKE:
     ntc     =       2, jfastw  =       0
     tol     =   0.00001

Free energy options:
     icfe    =       1, ifsc    =       0, klambda =       1
     clambda =  0.8850, scalpha =  0.5000, scbeta  = 12.0000
     sceeorder =       2
     dynlmb =  0.0000 logdvdl =       0

Ewald parameters:
     verbose =       0, ew_type =       0, nbflag  =       1, use_pme =       1
     vdwmeth =       1, eedmeth =       1, netfrc  =       1
     Box X =   66.953   Box Y =   66.953   Box Z =   66.953
     Alpha =  109.471   Beta  =  109.471   Gamma =  109.471
     NFFT1 =   64       NFFT2 =   64       NFFT3 =   64
     Cutoff=   10.000   Tol   =0.100E-04
     Ewald Coefficient =  0.27511
     Interpolation order =    4
     TI Mask 1 :1; matches      7 atoms
     TI Mask 2 :2; matches      7 atoms
     TI region 1:   20845 atoms
     TI region 2:   20845 atoms
Removing charge of      -0.8188 from atom       8
Removing charge of      -0.8188 from atom       9
Removing charge of       0.8054 from atom      10
Removing charge of      -0.1021 from atom      11
Removing charge of      -0.0219 from atom      12
Removing charge of      -0.0219 from atom      13
Removing charge of      -0.0219 from atom      14
Total charge of  -0.99999900 removed from       7 atoms
     Checking for mismatched coordinates.

--------------------------------------------------------------------------------
   3.  ATOMIC COORDINATES AND VELOCITIES
--------------------------------------------------------------------------------

default_name
 begin time read from input coords =   200.000 ps

 Number of triangulated 3-point waters found:     6946

     Sum of charges for TI region  1 =  -1.00000662
     Assuming uniform neutralizing plasma

     Sum of charges for TI region  2 =  -0.00000762
     Forcing neutrality...

--------------------------------------------------------------------------------
   4.  RESULTS
 NSTEP =     1000   TIME(PS) =     202.000  TEMP(K) =   300.44  PRESS = -1042.0
 Etot   =    -64094.7607  EKtot   =     12446.4704  EPtot      =    -76541.2310
 BOND   =         4.0262  ANGLE   =         3.8378  DIHED      =         5.2954
 1-4 NB =         0.4232  1-4 EEL =         1.2042  VDWAALS    =     14111.3825
 EELEC  =    -90667.4004  EHBOND  =         0.0000  RESTRAINT  =         0.0000
 EKCMT  =      6219.3861  VIRIAL  =     11316.3427  VOLUME     =    226546.9442
                                                    Density    =         0.9177
 DV/DL  =        26.8726
 ------------------------------------------------------------------------------

      A V E R A G E S   O V E R    1000 S T E P S

 NSTEP =     1000   TIME(PS) =     202.000  TEMP(K) =   300.00  PRESS = -1100.2
 Etot   =    -63947.0192  EKtot   =     12428.2830  EPtot      =    -76375.3022
 BOND   =         0.8494  ANGLE   =         5.2885  DIHED      =         5.2792
 1-4 NB =         0.4836  1-4 EEL =         1.2114  VDWAALS    =     14082.2126
 EELEC  =    -90470.6268  EHBOND  =         0.0000  RESTRAINT  =         0.0000
 EKCMT  =      6241.3136  VIRIAL  =     11675.8235  VOLUME     =    228604.1189
                                                    Density    =         0.9095
 DV/DL  =        23.1850
 ------------------------------------------------------------------------------

      R M S  F L U C T U A T I O N S

 NSTEP =     1000   TIME(PS) =     202.000  TEMP(K) =     2.04  PRESS =   197.3
 Etot   =       127.6860  EKtot   =        84.5403  EPtot      =       108.8994
 BOND   =         0.6741  ANGLE   =         1.1850  DIHED      =         0.0734
 1-4 NB =         0.2992  1-4 EEL =         0.0212  VDWAALS    =       167.3019
 EELEC  =       238.3425  EHBOND  =         0.0000  RESTRAINT  =         0.0000
 EKCMT  =        56.1379  VIRIAL  =       993.3452  VOLUME     =      1277.2837
                                                    Density    =         0.0051
 DV/DL  =         7.9462
 ------------------------------------------------------------------------------

      A V E R A G E S   O V E R    1000 S T E P S

 NSTEP =     1000   TIME(PS) =     202.000  TEMP(K) =   300.00  PRESS = -1100.2
 Etot   =    -63947.0192  EKtot   =     12428.2830  EPtot      =    -76375.3022
 BOND   =         0.8494  ANGLE   =         5.2885  DIHED      =         5.2792
 1-4 NB =         0.4836  1-4 EEL =         1.2114  VDWAALS    =     14082.2126
 EELEC  =    -90470.6268  EHBOND  =         0.0000  RESTRAINT  =         0.0000
 EKCMT  =      6241.3136  VIRIAL  =     11675.8235  VOLUME     =    228604.1189
                                                    Density    =         0.9095
 DV/DL  =        23.1850
 ------------------------------------------------------------------------------

      R M S  F L U C T U A T I O N S

 NSTEP =     1000   TIME(PS) =     202.000  TEMP(K) =     2.04  PRESS =   197.3
 Etot   =       127.6860  EKtot   =        84.5403  EPtot      =       108.8994
 BOND   =         0.6741  ANGLE   =         1.1850  DIHED      =         0.0734
 1-4 NB =         0.2992  1-4 EEL =         0.0212  VDWAALS    =       167.3019
 EELEC  =       238.3425  EHBOND  =         0.0000  RESTRAINT  =         0.0000
 EKCMT  =        56.1379  VIRIAL  =       993.3452  VOLUME     =      1277.2837
                                                    Density    =         0.0051
 DV/DL  =         7.9462
 ------------------------------------------------------------------------------

      DV/DL, AVERAGES OVER    1000 STEPS

 NSTEP =     1000   TIME(PS) =     202.000  TEMP(K) =     2.04  PRESS =     0.0
 Etot   =         0.0000  EKtot   =         0.0000  EPtot      =        23.1850
 BOND   =         0.0000  ANGLE   =         0.0000  DIHED      =         0.0000
 1-4 NB =         0.0000  1-4 EEL =       -10.5292  VDWAALS    =         0.0000
 EELEC  =        33.7142  EHBOND  =         0.0000  RESTRAINT  =         0.0000
 EKCMT  =         0.0000  VIRIAL  =         0.0000  VOLUME     =         0.0000
                                                    Density    =         0.0000
 DV/DL  =        23.1850
 ------------------------------------------------------------------------------

      A V E R A G E S   O V E R    1000 S T E P S

 NSTEP =     2000   TIME(PS) =     204.000  TEMP(K) =   300.42  PRESS =  -810.4
 Etot   =    -64110.0831  EKtot   =     12445.3564  EPtot      =    -76555.4395
 BOND   =         1.1454  ANGLE   =         6.7080  DIHED      =         5.2865
 1-4 NB =         0.4809  1-4 EEL =         1.2107  VDWAALS    =     14240.3179
 EELEC  =    -90810.5890  EHBOND  =         0.0000  RESTRAINT  =         0.0000
 EKCMT  =      6229.5779  VIRIAL  =     10164.8286  VOLUME     =    224784.2192
                                                    Density    =         0.9249
 DV/DL  =        18.5474
 ------------------------------------------------------------------------------

      R M S  F L U C T U A T I O N S

 NSTEP =     2000   TIME(PS) =     204.000  TEMP(K) =     2.01  PRESS =   184.3
 Etot   =        87.1631  EKtot   =        83.2555  EPtot      =       121.4848
 BOND   =         0.7832  ANGLE   =         1.6743  DIHED      =         0.0937
 1-4 NB =         0.2491  1-4 EEL =         0.0157  VDWAALS    =       182.4510
 EELEC  =       273.3523  EHBOND  =         0.0000  RESTRAINT  =         0.0000
 EKCMT  =        55.1762  VIRIAL  =       900.5743  VOLUME     =       934.0688
                                                    Density    =         0.0038
 DV/DL  =         7.5717
 ------------------------------------------------------------------------------

      A V E R A G E S   O V E R    1000 S T E P S

 NSTEP =     2000   TIME(PS) =     204.000  TEMP(K) =   300.42  PRESS =  -810.4
 Etot   =    -64110.0831  EKtot   =     12445.3564  EPtot      =    -76555.4395
 BOND   =         1.1454  ANGLE   =         6.7080  DIHED      =         5.2865
 1-4 NB =         0.4809  1-4 EEL =         1.2107  VDWAALS    =     14240.3179
 EELEC  =    -90810.5890  EHBOND  =         0.0000  RESTRAINT  =         0.0000
 EKCMT  =      6229.5779  VIRIAL  =     10164.8286  VOLUME     =    224784.2192
                                                    Density    =         0.9249
 DV/DL  =        18.5474
 ------------------------------------------------------------------------------

      R M S  F L U C T U A T I O N S

 NSTEP =     2000   TIME(PS) =     204.000  TEMP(K) =     2.01  PRESS =   184.3
 Etot   =        87.1631  EKtot   =        83.2555  EPtot      =       121.4848
 BOND   =         0.7832  ANGLE   =         1.6743  DIHED      =         0.0937
 1-4 NB =         0.2491  1-4 EEL =         0.0157  VDWAALS    =       182.4510
 EELEC  =       273.3523  EHBOND  =         0.0000  RESTRAINT  =         0.0000
 EKCMT  =        55.1762  VIRIAL  =       900.5743  VOLUME     =       934.0688
                                                    Density    =         0.0038
 DV/DL  =         7.5717
 ------------------------------------------------------------------------------

      DV/DL, AVERAGES OVER    1000 STEPS

 NSTEP =     2000   TIME(PS) =     204.000  TEMP(K) =     2.01  PRESS =     0.0
 Etot   =         0.0000  EKtot   =         0.0000  EPtot      =        18.5474
 BOND   =         0.0000  ANGLE   =         0.0000  DIHED      =         0.0000
 1-4 NB =         0.0000  1-4 EEL =       -10.5235  VDWAALS    =         0.0000
 EELEC  =        29.0709  EHBOND  =         0.0000  RESTRAINT  =         0.0000
 EKCMT  =         0.0000  VIRIAL  =         0.0000  VOLUME     =         0.0000
                                                    Density    =         0.0000
 DV/DL  =        18.5474
 ------------------------------------------------------------------------------

      A V E R A G E S   O V E R    1000 S T E P S

 NSTEP =   500000   TIME(PS) =    1200.000  TEMP(K) =   297.94  PRESS =   -43.2
 Etot   =    -65170.8621  EKtot   =     12342.8418  EPtot      =    -77513.7039
 BOND   =         0.9945  ANGLE   =         5.3969  DIHED      =         5.3401
 1-4 NB =         0.4903  1-4 EEL =         1.2118  VDWAALS    =     14642.6287
 EELEC  =    -92169.7663  EHBOND  =         0.0000  RESTRAINT  =         0.0000
 EKCMT  =      6190.8161  VIRIAL  =      6385.0967  VOLUME     =    208197.5805
                                                    Density    =         0.9986
 DV/DL  =        16.7508
 ------------------------------------------------------------------------------

      R M S  F L U C T U A T I O N S

 NSTEP =   500000   TIME(PS) =    1200.000  TEMP(K) =     2.09  PRESS =   137.2
 Etot   =       164.5279  EKtot   =        86.7238  EPtot      =       125.4649
 BOND   =         0.7339  ANGLE   =         1.2505  DIHED      =         0.1335
 1-4 NB =         0.2628  1-4 EEL =         0.0158  VDWAALS    =       138.2071
 EELEC  =       221.3810  EHBOND  =         0.0000  RESTRAINT  =         0.0000
 EKCMT  =        59.1025  VIRIAL  =       623.9575  VOLUME     =        38.3437
                                                    Density    =         0.0002
 DV/DL  =         7.4748
 ------------------------------------------------------------------------------

      A V E R A G E S   O V E R    1000 S T E P S

 NSTEP =   500000   TIME(PS) =    1200.000  TEMP(K) =   297.94  PRESS =   -43.2
 Etot   =    -65170.8621  EKtot   =     12342.8418  EPtot      =    -77513.7039
 BOND   =         0.9945  ANGLE   =         5.3969  DIHED      =         5.3401
 1-4 NB =         0.4903  1-4 EEL =         1.2118  VDWAALS    =     14642.6287
 EELEC  =    -92169.7663  EHBOND  =         0.0000  RESTRAINT  =         0.0000
 EKCMT  =      6190.8161  VIRIAL  =      6385.0967  VOLUME     =    208197.5805
                                                    Density    =         0.9986
 DV/DL  =        16.7508
 ------------------------------------------------------------------------------

      R M S  F L U C T U A T I O N S

 NSTEP =   500000   TIME(PS) =    1200.000  TEMP(K) =     2.09  PRESS =   137.2
 Etot   =       164.5279  EKtot   =        86.7238  EPtot      =       125.4649
 BOND   =         0.7339  ANGLE   =         1.2505  DIHED      =         0.1335
 1-4 NB =         0.2628  1-4 EEL =         0.0158  VDWAALS    =       138.2071
 EELEC  =       221.3810  EHBOND  =         0.0000  RESTRAINT  =         0.0000
 EKCMT  =        59.1025  VIRIAL  =       623.9575  VOLUME     =        38.3437
                                                    Density    =         0.0002
 DV/DL  =         7.4748
 ------------------------------------------------------------------------------

      DV/DL, AVERAGES OVER    1000 STEPS

 NSTEP =   500000   TIME(PS) =    1200.000  TEMP(K) =     2.09  PRESS =     0.0
 Etot   =         0.0000  EKtot   =         0.0000  EPtot      =        16.7508
 BOND   =         0.0000  ANGLE   =         0.0000  DIHED      =         0.0000
 1-4 NB =         0.0000  1-4 EEL =       -10.5331  VDWAALS    =         0.0000
 EELEC  =        27.2839  EHBOND  =         0.0000  RESTRAINT  =         0.0000
 EKCMT  =         0.0000  VIRIAL  =         0.0000  VOLUME     =         0.0000
                                                    Density    =         0.0000
 DV/DL  =        16.7508
 ------------------------------------------------------------------------------

      A V E R A G E S   O V E R  500000 S T E P S

 NSTEP =   500000   TIME(PS) =    1200.000  TEMP(K) =   300.07  PRESS =   -10.7
 Etot   =    -64868.1095  EKtot   =     12431.1216  EPtot      =    -77299.2310
 BOND   =         0.9324  ANGLE   =         5.2072  DIHED      =         5.2776
 1-4 NB =         0.4882  1-4 EEL =         1.2107  VDWAALS    =     14601.4248
 EELEC  =    -91913.7720  EHBOND  =         0.0000  RESTRAINT  =         0.0000
 EKCMT  =      6237.3381  VIRIAL  =      6288.3480  VOLUME     =    208797.9297
                                                    Density    =         0.9958
 DV/DL  =        21.5622
 ------------------------------------------------------------------------------

      R M S  F L U C T U A T I O N S

 NSTEP =   500000   TIME(PS) =    1200.000  TEMP(K) =     2.07  PRESS =   161.1
 Etot   =       167.8481  EKtot   =        85.5864  EPtot      =       145.5525
 BOND   =         0.7659  ANGLE   =         1.2230  DIHED      =         0.0866
 1-4 NB =         0.2921  1-4 EEL =         0.0199  VDWAALS    =       145.0135
 EELEC  =       240.6714  EHBOND  =         0.0000  RESTRAINT  =         0.0000
 EKCMT  =        61.6279  VIRIAL  =       737.4989  VOLUME     =      1611.3402
                                                    Density    =         0.0072
 DV/DL  =         9.4103
 ------------------------------------------------------------------------------

      A V E R A G E S   O V E R  500000 S T E P S

 NSTEP =   500000   TIME(PS) =    1200.000  TEMP(K) =   300.07  PRESS =   -10.7
 Etot   =    -64868.1095  EKtot   =     12431.1216  EPtot      =    -77299.2310
 BOND   =         0.9324  ANGLE   =         5.2072  DIHED      =         5.2776
 1-4 NB =         0.4882  1-4 EEL =         1.2107  VDWAALS    =     14601.4248
 EELEC  =    -91913.7720  EHBOND  =         0.0000  RESTRAINT  =         0.0000
 EKCMT  =      6237.3381  VIRIAL  =      6288.3480  VOLUME     =    208797.9297
                                                    Density    =         0.9958
 DV/DL  =        21.5622
 ------------------------------------------------------------------------------

      R M S  F L U C T U A T I O N S

 NSTEP =   500000   TIME(PS) =    1200.000  TEMP(K) =     2.07  PRESS =   161.1
 Etot   =       167.8481  EKtot   =        85.5864  EPtot      =       145.5525
 BOND   =         0.7659  ANGLE   =         1.2230  DIHED      =         0.0866
 1-4 NB =         0.2921  1-4 EEL =         0.0199  VDWAALS    =       145.0135
 EELEC  =       240.6714  EHBOND  =         0.0000  RESTRAINT  =         0.0000
 EKCMT  =        61.6279  VIRIAL  =       737.4989  VOLUME     =      1611.3402
                                                    Density    =         0.0072
 DV/DL  =         9.4103
 ------------------------------------------------------------------------------

      DV/DL, AVERAGES OVER  500000 STEPS

 NSTEP =   500000   TIME(PS) =    1200.000  TEMP(K) =     2.07  PRESS =     0.0
 Etot   =         0.0000  EKtot   =         0.0000  EPtot      =        21.5622
 BOND   =         0.0000  ANGLE   =         0.0000  DIHED      =         0.0000
 1-4 NB =         0.0000  1-4 EEL =       -10.5236  VDWAALS    =         0.0000
 EELEC  =        32.0858  EHBOND  =         0.0000  RESTRAINT  =         0.0000
 EKCMT  =         0.0000  VIRIAL  =         0.0000  VOLUME     =         0.0000
                                                    Density    =         0.0000
 DV/DL  =        21.5622
 ------------------------------------------------------------------------------
