-------------------------------------------------------
          Amber 18 PMEMD                              2018
          -------------------------------------------------------

  [-O]verwriting output

File Assignments:

 Here is the input file:

 &cntrl
   nstlim=500000, nscm=1000,
   ntx=5, irest=1, ntpr=1000,
   tempi=300.0, temp0=300.0, ntt=3, gamma_ln=2.0,
   ntp=1, pres0=1.01325, taup=5.0,
   ntb=2, igb=0, cut=10.0,
   dt=0.002, ig=-1,
   ntc=2, ntf=2,
   iwrap=0,
   ntwr=1000, ntwx=50000, ntave=1000,
   ioutfm=1, ntwv=-1,
   ifsc = 0, icfe=1,
   clambda=0.00922,
   timask1=':1',
   timask2=':2', crgmask = ':2',
/

Note: ig = -1. Setting random seed to   562442 based on wallclock time in
      microseconds.

--------------------------------------------------------------------------------
   1.  RESOURCE   USE:
--------------------------------------------------------------------------------

 getting box info from netcdf restart file
 NATOM  =      14 NTYPES =       6 NBONH =       6 MBONA  =       6
 NTHETH =      12 MTHETA =       6 NPHIH =      24 MPHIA  =       2
 NHPARM =       0 NPARM  =       0 NNB   =      44 NRES   =       2
 NBONA  =       6 NTHETA =       6 NPHIA =       2 NUMBND =       3
 NUMANG =       4 NPTRA  =       3 NATYP =       6 NPHB   =       1
 IFBOX  =       2 NMXRS  =       7 IFCAP =       0 NEXTRA =       0
 NCOPY  =       0

     BOX TYPE: TRUNCATED OCTAHEDRON

--------------------------------------------------------------------------------
   2.  CONTROL  DATA  FOR  THE  RUN
--------------------------------------------------------------------------------

default_name

General flags:
     imin    =       0, nmropt  =       0

Nature and format of input:
     ntx     =       5, irest   =       1, ntrx    =       1

Nature and format of output:
     ntxo    =       2, ntpr    =    1000, ntrx    =       1, ntwr    =    1000
     iwrap   =       0, ntwx    =   50000, ntwv    =      -1, ntwe    =       0
     ioutfm  =       1, ntwprt  =       0, idecomp =       0, rbornstat=      0

Potential function:
     ntf     =       2, ntb     =       2, igb     =       0, nsnb    =      25
     ipol    =       0, gbsa    =       0, iesp    =       0
     dielc   =   1.00000, cut     =  10.00000, intdiel =   1.00000

Frozen or restrained atoms:
     ibelly  =       0, ntr     =       0

Molecular dynamics:
     nstlim  =    500000, nscm    =      1000, nrespa  =         1
     t       =   0.00000, dt      =   0.00200, vlimit  =  -1.00000

Langevin dynamics temperature regulation:
     ig      =  562442
     temp0   = 300.00000, tempi   = 300.00000, gamma_ln=   2.00000

Pressure regulation:
     ntp     =       1
     pres0   =   1.01325, comp    =  44.60000, taup    =   5.00000

SHAKE:
     ntc     =       2, jfastw  =       0
     tol     =   0.00001

Free energy options:
     icfe    =       1, ifsc    =       0, klambda =       1
     clambda =  0.0092, scalpha =  0.5000, scbeta  = 12.0000
     sceeorder =       2
     dynlmb =  0.0000 logdvdl =       0

Ewald parameters:
     verbose =       0, ew_type =       0, nbflag  =       1, use_pme =       1
     vdwmeth =       1, eedmeth =       1, netfrc  =       1
     Box X =   66.953   Box Y =   66.953   Box Z =   66.953
     Alpha =  109.471   Beta  =  109.471   Gamma =  109.471
     NFFT1 =   64       NFFT2 =   64       NFFT3 =   64
     Cutoff=   10.000   Tol   =0.100E-04
     Ewald Coefficient =  0.27511
     Interpolation order =    4
     TI Mask 1 :1; matches      7 atoms
     TI Mask 2 :2; matches      7 atoms
     TI region 1:       7 atoms
     TI region 2:       7 atoms
Removing charge of      -0.8188 from atom       8
Removing charge of      -0.8188 from atom       9
Removing charge of       0.8054 from atom      10
Removing charge of      -0.1021 from atom      11
Removing charge of      -0.0219 from atom      12
Removing charge of      -0.0219 from atom      13
Removing charge of      -0.0219 from atom      14
Total charge of  -0.99999900 removed from       7 atoms
     Checking for mismatched coordinates.

--------------------------------------------------------------------------------
   3.  ATOMIC COORDINATES AND VELOCITIES
--------------------------------------------------------------------------------

default_name
 begin time read from input coords =   200.000 ps

 Number of triangulated 3-point waters found:        0

     Sum of charges for TI region  1 =  -0.99999900
     Assuming uniform neutralizing plasma

     Sum of charges for TI region  2 =   0.00000000
     Forcing neutrality...

--------------------------------------------------------------------------------
   4.  RESULTS
 NSTEP =     1000   TIME(PS) =     202.000  TEMP(K) =   168.39  PRESS =    -0.5
 Etot   =        15.0134  EKtot   =         3.0116  EPtot      =        12.0017
 BOND   =         0.0259  ANGLE   =         3.3175  DIHED      =         5.2295
 1-4 NB =         0.6451  1-4 EEL =        10.5223  VDWAALS    =        -0.0001
 EELEC  =        -7.7385  EHBOND  =         0.0000  RESTRAINT  =         0.0000
 EKCMT  =         1.2881  VIRIAL  =         3.8115  VOLUME     =    231032.6411
                                                    Density    =         0.0004
 DV/DL  =        -2.8097
 ------------------------------------------------------------------------------

      A V E R A G E S   O V E R    1000 S T E P S

 NSTEP =     1000   TIME(PS) =     202.000  TEMP(K) =   315.13  PRESS =    -0.1
 Etot   =        18.9088  EKtot   =         5.6361  EPtot      =        13.2728
 BOND   =         0.5472  ANGLE   =         4.5362  DIHED      =         5.2636
 1-4 NB =         0.3333  1-4 EEL =        10.3282  VDWAALS    =        -0.0001
 EELEC  =        -7.7357  EHBOND  =         0.0000  RESTRAINT  =         0.0000
 EKCMT  =         3.3670  VIRIAL  =         3.8160  VOLUME     =    231034.9887
                                                    Density    =         0.0004
 DV/DL  =        -2.6167
 ------------------------------------------------------------------------------

      R M S  F L U C T U A T I O N S

 NSTEP =     1000   TIME(PS) =     202.000  TEMP(K) =   111.07  PRESS =     0.6
 Etot   =         2.0658  EKtot   =         1.9864  EPtot      =         1.0610
 BOND   =         0.4926  ANGLE   =         0.8717  DIHED      =         0.0569
 1-4 NB =         0.1639  1-4 EEL =         0.1293  VDWAALS    =         0.0000
 EELEC  =         0.0025  EHBOND  =         0.0000  RESTRAINT  =         0.0000
 EKCMT  =         2.8484  VIRIAL  =         0.0279  VOLUME     =         1.1045
                                                    Density    =         0.0000
 DV/DL  =         0.1305
 ------------------------------------------------------------------------------

      A V E R A G E S   O V E R    1000 S T E P S

 NSTEP =     1000   TIME(PS) =     202.000  TEMP(K) =   315.13  PRESS =    -0.1
 Etot   =        18.9088  EKtot   =         5.6361  EPtot      =        13.2728
 BOND   =         0.5472  ANGLE   =         4.5362  DIHED      =         5.2636
 1-4 NB =         0.3333  1-4 EEL =        10.3282  VDWAALS    =        -0.0001
 EELEC  =        -7.7357  EHBOND  =         0.0000  RESTRAINT  =         0.0000
 EKCMT  =         3.3670  VIRIAL  =         3.8160  VOLUME     =    231034.9887
                                                    Density    =         0.0004
 DV/DL  =        -2.6167
 ------------------------------------------------------------------------------

      R M S  F L U C T U A T I O N S

 NSTEP =     1000   TIME(PS) =     202.000  TEMP(K) =   111.07  PRESS =     0.6
 Etot   =         2.0658  EKtot   =         1.9864  EPtot      =         1.0610
 BOND   =         0.4926  ANGLE   =         0.8717  DIHED      =         0.0569
 1-4 NB =         0.1639  1-4 EEL =         0.1293  VDWAALS    =         0.0000
 EELEC  =         0.0025  EHBOND  =         0.0000  RESTRAINT  =         0.0000
 EKCMT  =         2.8484  VIRIAL  =         0.0279  VOLUME     =         1.1045
                                                    Density    =         0.0000
 DV/DL  =         0.1305
 ------------------------------------------------------------------------------

      DV/DL, AVERAGES OVER    1000 STEPS

 NSTEP =     1000   TIME(PS) =     202.000  TEMP(K) =   111.07  PRESS =     0.0
 Etot   =         0.0000  EKtot   =         0.0000  EPtot      =        -2.6167
 BOND   =         0.0000  ANGLE   =         0.0000  DIHED      =         0.0000
 1-4 NB =         0.0000  1-4 EEL =       -10.4243  VDWAALS    =         0.0000
 EELEC  =         7.8076  EHBOND  =         0.0000  RESTRAINT  =         0.0000
 EKCMT  =         0.0000  VIRIAL  =         0.0000  VOLUME     =         0.0000
                                                    Density    =         0.0000
 DV/DL  =        -2.6167
 ------------------------------------------------------------------------------

      A V E R A G E S   O V E R    1000 S T E P S

 NSTEP =     2000   TIME(PS) =     204.000  TEMP(K) =   234.24  PRESS =    -0.6
 Etot   =        17.9382  EKtot   =         4.1893  EPtot      =        13.7488
 BOND   =         1.2808  ANGLE   =         4.3065  DIHED      =         5.2453
 1-4 NB =         0.3239  1-4 EEL =        10.3281  VDWAALS    =        -0.0001
 EELEC  =        -7.7355  EHBOND  =         0.0000  RESTRAINT  =         0.0000
 EKCMT  =         0.8187  VIRIAL  =         3.8310  VOLUME     =    231029.3507
                                                    Density    =         0.0004
 DV/DL  =        -2.6167
 ------------------------------------------------------------------------------

      R M S  F L U C T U A T I O N S

 NSTEP =     2000   TIME(PS) =     204.000  TEMP(K) =    61.57  PRESS =     0.1
 Etot   =         1.2193  EKtot   =         1.1012  EPtot      =         1.0729
 BOND   =         0.9040  ANGLE   =         0.6602  DIHED      =         0.0419
 1-4 NB =         0.1365  1-4 EEL =         0.1123  VDWAALS    =         0.0000
 EELEC  =         0.0031  EHBOND  =         0.0000  RESTRAINT  =         0.0000
 EKCMT  =         0.5277  VIRIAL  =         0.0239  VOLUME     =         1.9388
                                                    Density    =         0.0000
 DV/DL  =         0.1133
 ------------------------------------------------------------------------------

      A V E R A G E S   O V E R    1000 S T E P S

 NSTEP =     2000   TIME(PS) =     204.000  TEMP(K) =   234.24  PRESS =    -0.6
 Etot   =        17.9382  EKtot   =         4.1893  EPtot      =        13.7488
 BOND   =         1.2808  ANGLE   =         4.3065  DIHED      =         5.2453
 1-4 NB =         0.3239  1-4 EEL =        10.3281  VDWAALS    =        -0.0001
 EELEC  =        -7.7355  EHBOND  =         0.0000  RESTRAINT  =         0.0000
 EKCMT  =         0.8187  VIRIAL  =         3.8310  VOLUME     =    231029.3507
                                                    Density    =         0.0004
 DV/DL  =        -2.6167
 ------------------------------------------------------------------------------

      R M S  F L U C T U A T I O N S

 NSTEP =     2000   TIME(PS) =     204.000  TEMP(K) =    61.57  PRESS =     0.1
 Etot   =         1.2193  EKtot   =         1.1012  EPtot      =         1.0729
 BOND   =         0.9040  ANGLE   =         0.6602  DIHED      =         0.0419
 1-4 NB =         0.1365  1-4 EEL =         0.1123  VDWAALS    =         0.0000
 EELEC  =         0.0031  EHBOND  =         0.0000  RESTRAINT  =         0.0000
 EKCMT  =         0.5277  VIRIAL  =         0.0239  VOLUME     =         1.9388
                                                    Density    =         0.0000
 DV/DL  =         0.1133
 ------------------------------------------------------------------------------

      DV/DL, AVERAGES OVER    1000 STEPS

 NSTEP =     2000   TIME(PS) =     204.000  TEMP(K) =    61.57  PRESS =     0.0
 Etot   =         0.0000  EKtot   =         0.0000  EPtot      =        -2.6167
 BOND   =         0.0000  ANGLE   =         0.0000  DIHED      =         0.0000
 1-4 NB =         0.0000  1-4 EEL =       -10.4242  VDWAALS    =         0.0000
 EELEC  =         7.8075  EHBOND  =         0.0000  RESTRAINT  =         0.0000
 EKCMT  =         0.0000  VIRIAL  =         0.0000  VOLUME     =         0.0000
                                                    Density    =         0.0000
 DV/DL  =        -2.6167
 ------------------------------------------------------------------------------

      A V E R A G E S   O V E R    1000 S T E P S

 NSTEP =   500000   TIME(PS) =    1200.000  TEMP(K) =   310.00  PRESS =    -0.6
 Etot   =        20.5073  EKtot   =         5.5443  EPtot      =        14.9630
 BOND   =         1.1687  ANGLE   =         5.4996  DIHED      =         5.3397
 1-4 NB =         0.3732  1-4 EEL =        10.3485  VDWAALS    =        -0.0001
 EELEC  =        -7.7666  EHBOND  =         0.0000  RESTRAINT  =         0.0000
 EKCMT  =         0.9961  VIRIAL  =         3.8473  VOLUME     =    228108.3443
                                                    Density    =         0.0004
 DV/DL  =        -2.6060
 ------------------------------------------------------------------------------

      R M S  F L U C T U A T I O N S

 NSTEP =   500000   TIME(PS) =    1200.000  TEMP(K) =    81.56  PRESS =     0.1
 Etot   =         1.4325  EKtot   =         1.4587  EPtot      =         1.3152
 BOND   =         0.8001  ANGLE   =         1.0965  DIHED      =         0.1193
 1-4 NB =         0.2179  1-4 EEL =         0.1738  VDWAALS    =         0.0000
 EELEC  =         0.0032  EHBOND  =         0.0000  RESTRAINT  =         0.0000
 EKCMT  =         0.6048  VIRIAL  =         0.0297  VOLUME     =         1.8931
                                                    Density    =         0.0000
 DV/DL  =         0.1756
 ------------------------------------------------------------------------------

      A V E R A G E S   O V E R    1000 S T E P S

 NSTEP =   500000   TIME(PS) =    1200.000  TEMP(K) =   310.00  PRESS =    -0.6
 Etot   =        20.5073  EKtot   =         5.5443  EPtot      =        14.9630
 BOND   =         1.1687  ANGLE   =         5.4996  DIHED      =         5.3397
 1-4 NB =         0.3732  1-4 EEL =        10.3485  VDWAALS    =        -0.0001
 EELEC  =        -7.7666  EHBOND  =         0.0000  RESTRAINT  =         0.0000
 EKCMT  =         0.9961  VIRIAL  =         3.8473  VOLUME     =    228108.3443
                                                    Density    =         0.0004
 DV/DL  =        -2.6060
 ------------------------------------------------------------------------------

      R M S  F L U C T U A T I O N S

 NSTEP =   500000   TIME(PS) =    1200.000  TEMP(K) =    81.56  PRESS =     0.1
 Etot   =         1.4325  EKtot   =         1.4587  EPtot      =         1.3152
 BOND   =         0.8001  ANGLE   =         1.0965  DIHED      =         0.1193
 1-4 NB =         0.2179  1-4 EEL =         0.1738  VDWAALS    =         0.0000
 EELEC  =         0.0032  EHBOND  =         0.0000  RESTRAINT  =         0.0000
 EKCMT  =         0.6048  VIRIAL  =         0.0297  VOLUME     =         1.8931
                                                    Density    =         0.0000
 DV/DL  =         0.1756
 ------------------------------------------------------------------------------

      DV/DL, AVERAGES OVER    1000 STEPS

 NSTEP =   500000   TIME(PS) =    1200.000  TEMP(K) =    81.56  PRESS =     0.0
 Etot   =         0.0000  EKtot   =         0.0000  EPtot      =        -2.6060
 BOND   =         0.0000  ANGLE   =         0.0000  DIHED      =         0.0000
 1-4 NB =         0.0000  1-4 EEL =       -10.4448  VDWAALS    =         0.0000
 EELEC  =         7.8388  EHBOND  =         0.0000  RESTRAINT  =         0.0000
 EKCMT  =         0.0000  VIRIAL  =         0.0000  VOLUME     =         0.0000
                                                    Density    =         0.0000
 DV/DL  =        -2.6060
 ------------------------------------------------------------------------------

      A V E R A G E S   O V E R  500000 S T E P S

 NSTEP =   500000   TIME(PS) =    1200.000  TEMP(K) =   298.36  PRESS =    -0.4
 Etot   =        19.6827  EKtot   =         5.3361  EPtot      =        14.3466
 BOND   =         1.0016  ANGLE   =         5.1315  DIHED      =         5.2756
 1-4 NB =         0.3532  1-4 EEL =        10.3368  VDWAALS    =        -0.0001
 EELEC  =        -7.7520  EHBOND  =         0.0000  RESTRAINT  =         0.0000
 EKCMT  =         1.7616  VIRIAL  =         3.8364  VOLUME     =    229569.7755
                                                    Density    =         0.0004
 DV/DL  =        -2.6088
 ------------------------------------------------------------------------------

      R M S  F L U C T U A T I O N S

 NSTEP =   500000   TIME(PS) =    1200.000  TEMP(K) =   100.66  PRESS =     0.3
 Etot   =         2.3154  EKtot   =         1.8003  EPtot      =         1.4532
 BOND   =         0.8132  ANGLE   =         1.1869  DIHED      =         0.0835
 1-4 NB =         0.2032  1-4 EEL =         0.1604  VDWAALS    =         0.0000
 EELEC  =         0.0099  EHBOND  =         0.0000  RESTRAINT  =         0.0000
 EKCMT  =         1.4643  VIRIAL  =         0.0289  VOLUME     =       847.9367
                                                    Density    =         0.0000
 DV/DL  =         0.1622
 ------------------------------------------------------------------------------

      A V E R A G E S   O V E R  500000 S T E P S

 NSTEP =   500000   TIME(PS) =    1200.000  TEMP(K) =   298.36  PRESS =    -0.4
 Etot   =        19.6827  EKtot   =         5.3361  EPtot      =        14.3466
 BOND   =         1.0016  ANGLE   =         5.1315  DIHED      =         5.2756
 1-4 NB =         0.3532  1-4 EEL =        10.3368  VDWAALS    =        -0.0001
 EELEC  =        -7.7520  EHBOND  =         0.0000  RESTRAINT  =         0.0000
 EKCMT  =         1.7616  VIRIAL  =         3.8364  VOLUME     =    229569.7755
                                                    Density    =         0.0004
 DV/DL  =        -2.6088
 ------------------------------------------------------------------------------

      R M S  F L U C T U A T I O N S

 NSTEP =   500000   TIME(PS) =    1200.000  TEMP(K) =   100.66  PRESS =     0.3
 Etot   =         2.3154  EKtot   =         1.8003  EPtot      =         1.4532
 BOND   =         0.8132  ANGLE   =         1.1869  DIHED      =         0.0835
 1-4 NB =         0.2032  1-4 EEL =         0.1604  VDWAALS    =         0.0000
 EELEC  =         0.0099  EHBOND  =         0.0000  RESTRAINT  =         0.0000
 EKCMT  =         1.4643  VIRIAL  =         0.0289  VOLUME     =       847.9367
                                                    Density    =         0.0000
 DV/DL  =         0.1622
 ------------------------------------------------------------------------------

      DV/DL, AVERAGES OVER  500000 STEPS

 NSTEP =   500000   TIME(PS) =    1200.000  TEMP(K) =   100.66  PRESS =     0.0
 Etot   =         0.0000  EKtot   =         0.0000  EPtot      =        -2.6088
 BOND   =         0.0000  ANGLE   =         0.0000  DIHED      =         0.0000
 1-4 NB =         0.0000  1-4 EEL =       -10.4330  VDWAALS    =         0.0000
 EELEC  =         7.8242  EHBOND  =         0.0000  RESTRAINT  =         0.0000
 EKCMT  =         0.0000  VIRIAL  =         0.0000  VOLUME     =         0.0000
                                                    Density    =         0.0000
 DV/DL  =        -2.6088
 ------------------------------------------------------------------------------
