-------------------------------------------------------
          Amber 18 PMEMD                              2018
          -------------------------------------------------------

  [-O]verwriting output

File Assignments:

 Here is the input file:

 &cntrl
   nstlim=500000, nscm=1000,
   ntx=5, irest=1, ntpr=1000,
   tempi=300.0, temp0=300.0, ntt=3, gamma_ln=2.0,
   ntp=1, pres0=1.01325, taup=5.0,
   ntb=2, igb=0, cut=10.0,
   dt=0.002, ig=-1,
   ntc=2, ntf=2,
   iwrap=0,
   ntwr=1000, ntwx=50000, ntave=1000,
   ioutfm=1, ntwv=-1,
   ifsc = 0, icfe=1,
   clambda=0.88495,
   timask1=':1',
   timask2=':2', crgmask = ':2',
/

Note: ig = -1. Setting random seed to   578043 based on wallclock time in
      microseconds.

--------------------------------------------------------------------------------
   1.  RESOURCE   USE:
--------------------------------------------------------------------------------

 getting box info from netcdf restart file
 NATOM  =      14 NTYPES =       6 NBONH =       6 MBONA  =       6
 NTHETH =      12 MTHETA =       6 NPHIH =      24 MPHIA  =       2
 NHPARM =       0 NPARM  =       0 NNB   =      44 NRES   =       2
 NBONA  =       6 NTHETA =       6 NPHIA =       2 NUMBND =       3
 NUMANG =       4 NPTRA  =       3 NATYP =       6 NPHB   =       1
 IFBOX  =       2 NMXRS  =       7 IFCAP =       0 NEXTRA =       0
 NCOPY  =       0

     BOX TYPE: TRUNCATED OCTAHEDRON

--------------------------------------------------------------------------------
   2.  CONTROL  DATA  FOR  THE  RUN
--------------------------------------------------------------------------------

default_name

General flags:
     imin    =       0, nmropt  =       0

Nature and format of input:
     ntx     =       5, irest   =       1, ntrx    =       1

Nature and format of output:
     ntxo    =       2, ntpr    =    1000, ntrx    =       1, ntwr    =    1000
     iwrap   =       0, ntwx    =   50000, ntwv    =      -1, ntwe    =       0
     ioutfm  =       1, ntwprt  =       0, idecomp =       0, rbornstat=      0

Potential function:
     ntf     =       2, ntb     =       2, igb     =       0, nsnb    =      25
     ipol    =       0, gbsa    =       0, iesp    =       0
     dielc   =   1.00000, cut     =  10.00000, intdiel =   1.00000

Frozen or restrained atoms:
     ibelly  =       0, ntr     =       0

Molecular dynamics:
     nstlim  =    500000, nscm    =      1000, nrespa  =         1
     t       =   0.00000, dt      =   0.00200, vlimit  =  -1.00000

Langevin dynamics temperature regulation:
     ig      =  578043
     temp0   = 300.00000, tempi   = 300.00000, gamma_ln=   2.00000

Pressure regulation:
     ntp     =       1
     pres0   =   1.01325, comp    =  44.60000, taup    =   5.00000

SHAKE:
     ntc     =       2, jfastw  =       0
     tol     =   0.00001

Free energy options:
     icfe    =       1, ifsc    =       0, klambda =       1
     clambda =  0.8850, scalpha =  0.5000, scbeta  = 12.0000
     sceeorder =       2
     dynlmb =  0.0000 logdvdl =       0

Ewald parameters:
     verbose =       0, ew_type =       0, nbflag  =       1, use_pme =       1
     vdwmeth =       1, eedmeth =       1, netfrc  =       1
     Box X =   66.953   Box Y =   66.953   Box Z =   66.953
     Alpha =  109.471   Beta  =  109.471   Gamma =  109.471
     NFFT1 =   64       NFFT2 =   64       NFFT3 =   64
     Cutoff=   10.000   Tol   =0.100E-04
     Ewald Coefficient =  0.27511
     Interpolation order =    4
     TI Mask 1 :1; matches      7 atoms
     TI Mask 2 :2; matches      7 atoms
     TI region 1:       7 atoms
     TI region 2:       7 atoms
Removing charge of      -0.8188 from atom       8
Removing charge of      -0.8188 from atom       9
Removing charge of       0.8054 from atom      10
Removing charge of      -0.1021 from atom      11
Removing charge of      -0.0219 from atom      12
Removing charge of      -0.0219 from atom      13
Removing charge of      -0.0219 from atom      14
Total charge of  -0.99999900 removed from       7 atoms
     Checking for mismatched coordinates.

--------------------------------------------------------------------------------
   3.  ATOMIC COORDINATES AND VELOCITIES
--------------------------------------------------------------------------------

default_name
 begin time read from input coords =   200.000 ps

 Number of triangulated 3-point waters found:        0

     Sum of charges for TI region  1 =  -0.99999900
     Assuming uniform neutralizing plasma

     Sum of charges for TI region  2 =   0.00000000
     Forcing neutrality...

--------------------------------------------------------------------------------
   4.  RESULTS
 NSTEP =     1000   TIME(PS) =     202.000  TEMP(K) =   356.58  PRESS =    -0.0
 Etot   =        18.5817  EKtot   =         6.3774  EPtot      =        12.2043
 BOND   =         1.3583  ANGLE   =         4.6943  DIHED      =         5.3563
 1-4 NB =         0.4764  1-4 EEL =         1.2175  VDWAALS    =        -0.0001
 EELEC  =        -0.8983  EHBOND  =         0.0000  RESTRAINT  =         0.0000
 EKCMT  =         1.5089  VIRIAL  =         1.6199  VOLUME     =    231038.4694
                                                    Density    =         0.0004
 DV/DL  =        -2.7742
 ------------------------------------------------------------------------------

      A V E R A G E S   O V E R    1000 S T E P S

 NSTEP =     1000   TIME(PS) =     202.000  TEMP(K) =   353.42  PRESS =     1.3
 Etot   =        19.0193  EKtot   =         6.3208  EPtot      =        12.6985
 BOND   =         1.3454  ANGLE   =         5.2380  DIHED      =         5.2625
 1-4 NB =         0.5410  1-4 EEL =         1.2100  VDWAALS    =        -0.0001
 EELEC  =        -0.8983  EHBOND  =         0.0000  RESTRAINT  =         0.0000
 EKCMT  =         1.8079  VIRIAL  =        -4.7994  VOLUME     =    231037.9276
                                                    Density    =         0.0004
 DV/DL  =        -2.7089
 ------------------------------------------------------------------------------

      R M S  F L U C T U A T I O N S

 NSTEP =     1000   TIME(PS) =     202.000  TEMP(K) =   121.50  PRESS =     0.8
 Etot   =         2.3909  EKtot   =         2.1730  EPtot      =         1.5384
 BOND   =         1.1160  ANGLE   =         1.1276  DIHED      =         0.0745
 1-4 NB =         0.4488  1-4 EEL =         0.0328  VDWAALS    =         0.0000
 EELEC  =         0.0004  EHBOND  =         0.0000  RESTRAINT  =         0.0000
 EKCMT  =         1.2702  VIRIAL  =         3.5254  VOLUME     =         0.5633
                                                    Density    =         0.0000
 DV/DL  =         0.2853
 ------------------------------------------------------------------------------

      A V E R A G E S   O V E R    1000 S T E P S

 NSTEP =     1000   TIME(PS) =     202.000  TEMP(K) =   353.42  PRESS =     1.3
 Etot   =        19.0193  EKtot   =         6.3208  EPtot      =        12.6985
 BOND   =         1.3454  ANGLE   =         5.2380  DIHED      =         5.2625
 1-4 NB =         0.5410  1-4 EEL =         1.2100  VDWAALS    =        -0.0001
 EELEC  =        -0.8983  EHBOND  =         0.0000  RESTRAINT  =         0.0000
 EKCMT  =         1.8079  VIRIAL  =        -4.7994  VOLUME     =    231037.9276
                                                    Density    =         0.0004
 DV/DL  =        -2.7089
 ------------------------------------------------------------------------------

      R M S  F L U C T U A T I O N S

 NSTEP =     1000   TIME(PS) =     202.000  TEMP(K) =   121.50  PRESS =     0.8
 Etot   =         2.3909  EKtot   =         2.1730  EPtot      =         1.5384
 BOND   =         1.1160  ANGLE   =         1.1276  DIHED      =         0.0745
 1-4 NB =         0.4488  1-4 EEL =         0.0328  VDWAALS    =         0.0000
 EELEC  =         0.0004  EHBOND  =         0.0000  RESTRAINT  =         0.0000
 EKCMT  =         1.2702  VIRIAL  =         3.5254  VOLUME     =         0.5633
                                                    Density    =         0.0000
 DV/DL  =         0.2853
 ------------------------------------------------------------------------------

      DV/DL, AVERAGES OVER    1000 STEPS

 NSTEP =     1000   TIME(PS) =     202.000  TEMP(K) =   121.50  PRESS =     0.0
 Etot   =         0.0000  EKtot   =         0.0000  EPtot      =        -2.7089
 BOND   =         0.0000  ANGLE   =         0.0000  DIHED      =         0.0000
 1-4 NB =         0.0000  1-4 EEL =       -10.5170  VDWAALS    =         0.0000
 EELEC  =         7.8081  EHBOND  =         0.0000  RESTRAINT  =         0.0000
 EKCMT  =         0.0000  VIRIAL  =         0.0000  VOLUME     =         0.0000
                                                    Density    =         0.0000
 DV/DL  =        -2.7089
 ------------------------------------------------------------------------------

      A V E R A G E S   O V E R    1000 S T E P S

 NSTEP =     2000   TIME(PS) =     204.000  TEMP(K) =   379.28  PRESS =     0.9
 Etot   =        20.1796  EKtot   =         6.7833  EPtot      =        13.3963
 BOND   =         1.1540  ANGLE   =         6.1351  DIHED      =         5.3013
 1-4 NB =         0.4926  1-4 EEL =         1.2117  VDWAALS    =        -0.0001
 EELEC  =        -0.8983  EHBOND  =         0.0000  RESTRAINT  =         0.0000
 EKCMT  =         1.2544  VIRIAL  =        -3.1327  VOLUME     =    231038.5280
                                                    Density    =         0.0004
 DV/DL  =        -2.7238
 ------------------------------------------------------------------------------

      R M S  F L U C T U A T I O N S

 NSTEP =     2000   TIME(PS) =     204.000  TEMP(K) =   131.53  PRESS =     0.6
 Etot   =         2.9182  EKtot   =         2.3524  EPtot      =         1.7577
 BOND   =         0.8214  ANGLE   =         1.3991  DIHED      =         0.0941
 1-4 NB =         0.2744  1-4 EEL =         0.0198  VDWAALS    =         0.0000
 EELEC  =         0.0005  EHBOND  =         0.0000  RESTRAINT  =         0.0000
 EKCMT  =         0.9683  VIRIAL  =         2.6073  VOLUME     =         0.2022
                                                    Density    =         0.0000
 DV/DL  =         0.1723
 ------------------------------------------------------------------------------

      A V E R A G E S   O V E R    1000 S T E P S

 NSTEP =     2000   TIME(PS) =     204.000  TEMP(K) =   379.28  PRESS =     0.9
 Etot   =        20.1796  EKtot   =         6.7833  EPtot      =        13.3963
 BOND   =         1.1540  ANGLE   =         6.1351  DIHED      =         5.3013
 1-4 NB =         0.4926  1-4 EEL =         1.2117  VDWAALS    =        -0.0001
 EELEC  =        -0.8983  EHBOND  =         0.0000  RESTRAINT  =         0.0000
 EKCMT  =         1.2544  VIRIAL  =        -3.1327  VOLUME     =    231038.5280
                                                    Density    =         0.0004
 DV/DL  =        -2.7238
 ------------------------------------------------------------------------------

      R M S  F L U C T U A T I O N S

 NSTEP =     2000   TIME(PS) =     204.000  TEMP(K) =   131.53  PRESS =     0.6
 Etot   =         2.9182  EKtot   =         2.3524  EPtot      =         1.7577
 BOND   =         0.8214  ANGLE   =         1.3991  DIHED      =         0.0941
 1-4 NB =         0.2744  1-4 EEL =         0.0198  VDWAALS    =         0.0000
 EELEC  =         0.0005  EHBOND  =         0.0000  RESTRAINT  =         0.0000
 EKCMT  =         0.9683  VIRIAL  =         2.6073  VOLUME     =         0.2022
                                                    Density    =         0.0000
 DV/DL  =         0.1723
 ------------------------------------------------------------------------------

      DV/DL, AVERAGES OVER    1000 STEPS

 NSTEP =     2000   TIME(PS) =     204.000  TEMP(K) =   131.53  PRESS =     0.0
 Etot   =         0.0000  EKtot   =         0.0000  EPtot      =        -2.7238
 BOND   =         0.0000  ANGLE   =         0.0000  DIHED      =         0.0000
 1-4 NB =         0.0000  1-4 EEL =       -10.5318  VDWAALS    =         0.0000
 EELEC  =         7.8080  EHBOND  =         0.0000  RESTRAINT  =         0.0000
 EKCMT  =         0.0000  VIRIAL  =         0.0000  VOLUME     =         0.0000
                                                    Density    =         0.0000
 DV/DL  =        -2.7238
 ------------------------------------------------------------------------------

      A V E R A G E S   O V E R    1000 S T E P S

 NSTEP =   500000   TIME(PS) =    1200.000  TEMP(K) =   371.54  PRESS =     0.8
 Etot   =        20.1431  EKtot   =         6.6449  EPtot      =        13.4983
 BOND   =         1.0822  ANGLE   =         6.3112  DIHED      =         5.2696
 1-4 NB =         0.5226  1-4 EEL =         1.2110  VDWAALS    =        -0.0001
 EELEC  =        -0.8983  EHBOND  =         0.0000  RESTRAINT  =         0.0000
 EKCMT  =         1.8254  VIRIAL  =        -2.3389  VOLUME     =    231033.6868
                                                    Density    =         0.0004
 DV/DL  =        -2.7186
 ------------------------------------------------------------------------------

      R M S  F L U C T U A T I O N S

 NSTEP =   500000   TIME(PS) =    1200.000  TEMP(K) =    97.90  PRESS =     0.7
 Etot   =         1.6415  EKtot   =         1.7509  EPtot      =         1.4456
 BOND   =         0.8087  ANGLE   =         1.3120  DIHED      =         0.0628
 1-4 NB =         0.3490  1-4 EEL =         0.0201  VDWAALS    =         0.0000
 EELEC  =         0.0003  EHBOND  =         0.0000  RESTRAINT  =         0.0000
 EKCMT  =         1.3944  VIRIAL  =         2.8540  VOLUME     =         0.4009
                                                    Density    =         0.0000
 DV/DL  =         0.1743
 ------------------------------------------------------------------------------

      A V E R A G E S   O V E R    1000 S T E P S

 NSTEP =   500000   TIME(PS) =    1200.000  TEMP(K) =   371.54  PRESS =     0.8
 Etot   =        20.1431  EKtot   =         6.6449  EPtot      =        13.4983
 BOND   =         1.0822  ANGLE   =         6.3112  DIHED      =         5.2696
 1-4 NB =         0.5226  1-4 EEL =         1.2110  VDWAALS    =        -0.0001
 EELEC  =        -0.8983  EHBOND  =         0.0000  RESTRAINT  =         0.0000
 EKCMT  =         1.8254  VIRIAL  =        -2.3389  VOLUME     =    231033.6868
                                                    Density    =         0.0004
 DV/DL  =        -2.7186
 ------------------------------------------------------------------------------

      R M S  F L U C T U A T I O N S

 NSTEP =   500000   TIME(PS) =    1200.000  TEMP(K) =    97.90  PRESS =     0.7
 Etot   =         1.6415  EKtot   =         1.7509  EPtot      =         1.4456
 BOND   =         0.8087  ANGLE   =         1.3120  DIHED      =         0.0628
 1-4 NB =         0.3490  1-4 EEL =         0.0201  VDWAALS    =         0.0000
 EELEC  =         0.0003  EHBOND  =         0.0000  RESTRAINT  =         0.0000
 EKCMT  =         1.3944  VIRIAL  =         2.8540  VOLUME     =         0.4009
                                                    Density    =         0.0000
 DV/DL  =         0.1743
 ------------------------------------------------------------------------------

      DV/DL, AVERAGES OVER    1000 STEPS

 NSTEP =   500000   TIME(PS) =    1200.000  TEMP(K) =    97.90  PRESS =     0.0
 Etot   =         0.0000  EKtot   =         0.0000  EPtot      =        -2.7186
 BOND   =         0.0000  ANGLE   =         0.0000  DIHED      =         0.0000
 1-4 NB =         0.0000  1-4 EEL =       -10.5262  VDWAALS    =         0.0000
 EELEC  =         7.8076  EHBOND  =         0.0000  RESTRAINT  =         0.0000
 EKCMT  =         0.0000  VIRIAL  =         0.0000  VOLUME     =         0.0000
                                                    Density    =         0.0000
 DV/DL  =        -2.7186
 ------------------------------------------------------------------------------

      A V E R A G E S   O V E R  500000 S T E P S

 NSTEP =   500000   TIME(PS) =    1200.000  TEMP(K) =   301.26  PRESS =     1.0
 Etot   =        17.5848  EKtot   =         5.3879  EPtot      =        12.1969
 BOND   =         0.9490  ANGLE   =         5.1721  DIHED      =         5.2801
 1-4 NB =         0.4835  1-4 EEL =         1.2105  VDWAALS    =        -0.0001
 EELEC  =        -0.8983  EHBOND  =         0.0000  RESTRAINT  =         0.0000
 EKCMT  =         1.7783  VIRIAL  =        -3.2657  VOLUME     =    231034.5818
                                                    Density    =         0.0004
 DV/DL  =        -2.7138
 ------------------------------------------------------------------------------

      R M S  F L U C T U A T I O N S

 NSTEP =   500000   TIME(PS) =    1200.000  TEMP(K) =   101.87  PRESS =     0.7
 Etot   =         2.3998  EKtot   =         1.8220  EPtot      =         1.5320
 BOND   =         0.7678  ANGLE   =         1.2204  DIHED      =         0.0879
 1-4 NB =         0.2868  1-4 EEL =         0.0201  VDWAALS    =         0.0000
 EELEC  =         0.0003  EHBOND  =         0.0000  RESTRAINT  =         0.0000
 EKCMT  =         1.4963  VIRIAL  =         2.8532  VOLUME     =         7.3673
                                                    Density    =         0.0000
 DV/DL  =         0.1744
 ------------------------------------------------------------------------------

      A V E R A G E S   O V E R  500000 S T E P S

 NSTEP =   500000   TIME(PS) =    1200.000  TEMP(K) =   301.26  PRESS =     1.0
 Etot   =        17.5848  EKtot   =         5.3879  EPtot      =        12.1969
 BOND   =         0.9490  ANGLE   =         5.1721  DIHED      =         5.2801
 1-4 NB =         0.4835  1-4 EEL =         1.2105  VDWAALS    =        -0.0001
 EELEC  =        -0.8983  EHBOND  =         0.0000  RESTRAINT  =         0.0000
 EKCMT  =         1.7783  VIRIAL  =        -3.2657  VOLUME     =    231034.5818
                                                    Density    =         0.0004
 DV/DL  =        -2.7138
 ------------------------------------------------------------------------------

      R M S  F L U C T U A T I O N S

 NSTEP =   500000   TIME(PS) =    1200.000  TEMP(K) =   101.87  PRESS =     0.7
 Etot   =         2.3998  EKtot   =         1.8220  EPtot      =         1.5320
 BOND   =         0.7678  ANGLE   =         1.2204  DIHED      =         0.0879
 1-4 NB =         0.2868  1-4 EEL =         0.0201  VDWAALS    =         0.0000
 EELEC  =         0.0003  EHBOND  =         0.0000  RESTRAINT  =         0.0000
 EKCMT  =         1.4963  VIRIAL  =         2.8532  VOLUME     =         7.3673
                                                    Density    =         0.0000
 DV/DL  =         0.1744
 ------------------------------------------------------------------------------

      DV/DL, AVERAGES OVER  500000 STEPS

 NSTEP =   500000   TIME(PS) =    1200.000  TEMP(K) =   101.87  PRESS =     0.0
 Etot   =         0.0000  EKtot   =         0.0000  EPtot      =        -2.7138
 BOND   =         0.0000  ANGLE   =         0.0000  DIHED      =         0.0000
 1-4 NB =         0.0000  1-4 EEL =       -10.5215  VDWAALS    =         0.0000
 EELEC  =         7.8076  EHBOND  =         0.0000  RESTRAINT  =         0.0000
 EKCMT  =         0.0000  VIRIAL  =         0.0000  VOLUME     =         0.0000
                                                    Density    =         0.0000
 DV/DL  =        -2.7138
 ------------------------------------------------------------------------------
