-------------------------------------------------------
          Amber 18 PMEMD                              2018
          -------------------------------------------------------

  [-O]verwriting output

File Assignments:

 Here is the input file:

 &cntrl
   nstlim=500000, nscm=1000,
   ntx=5, irest=1, ntpr=1000,
   tempi=300.0, temp0=300.0, ntt=3, gamma_ln=2.0,
   ntp=1, pres0=1.01325, taup=5.0,
   ntb=2, igb=0, cut=10.0,
   dt=0.002, ig=-1,
   ntc=2, ntf=2,
   iwrap=0,
   ntwr=1000, ntwx=50000, ntave=1000,
   ioutfm=1, ntwv=-1,
   ifsc = 0, icfe=1,
   clambda=0.56262,
   timask1=':1',
   timask2=':2', crgmask = ':2',
/

Note: ig = -1. Setting random seed to   993564 based on wallclock time in
      microseconds.

--------------------------------------------------------------------------------
   1.  RESOURCE   USE:
--------------------------------------------------------------------------------

 getting box info from netcdf restart file
 NATOM  =      14 NTYPES =       6 NBONH =       6 MBONA  =       6
 NTHETH =      12 MTHETA =       6 NPHIH =      24 MPHIA  =       2
 NHPARM =       0 NPARM  =       0 NNB   =      44 NRES   =       2
 NBONA  =       6 NTHETA =       6 NPHIA =       2 NUMBND =       3
 NUMANG =       4 NPTRA  =       3 NATYP =       6 NPHB   =       1
 IFBOX  =       2 NMXRS  =       7 IFCAP =       0 NEXTRA =       0
 NCOPY  =       0

     BOX TYPE: TRUNCATED OCTAHEDRON

--------------------------------------------------------------------------------
   2.  CONTROL  DATA  FOR  THE  RUN
--------------------------------------------------------------------------------

default_name

General flags:
     imin    =       0, nmropt  =       0

Nature and format of input:
     ntx     =       5, irest   =       1, ntrx    =       1

Nature and format of output:
     ntxo    =       2, ntpr    =    1000, ntrx    =       1, ntwr    =    1000
     iwrap   =       0, ntwx    =   50000, ntwv    =      -1, ntwe    =       0
     ioutfm  =       1, ntwprt  =       0, idecomp =       0, rbornstat=      0

Potential function:
     ntf     =       2, ntb     =       2, igb     =       0, nsnb    =      25
     ipol    =       0, gbsa    =       0, iesp    =       0
     dielc   =   1.00000, cut     =  10.00000, intdiel =   1.00000

Frozen or restrained atoms:
     ibelly  =       0, ntr     =       0

Molecular dynamics:
     nstlim  =    500000, nscm    =      1000, nrespa  =         1
     t       =   0.00000, dt      =   0.00200, vlimit  =  -1.00000

Langevin dynamics temperature regulation:
     ig      =  993564
     temp0   = 300.00000, tempi   = 300.00000, gamma_ln=   2.00000

Pressure regulation:
     ntp     =       1
     pres0   =   1.01325, comp    =  44.60000, taup    =   5.00000

SHAKE:
     ntc     =       2, jfastw  =       0
     tol     =   0.00001

Free energy options:
     icfe    =       1, ifsc    =       0, klambda =       1
     clambda =  0.5626, scalpha =  0.5000, scbeta  = 12.0000
     sceeorder =       2
     dynlmb =  0.0000 logdvdl =       0

Ewald parameters:
     verbose =       0, ew_type =       0, nbflag  =       1, use_pme =       1
     vdwmeth =       1, eedmeth =       1, netfrc  =       1
     Box X =   66.953   Box Y =   66.953   Box Z =   66.953
     Alpha =  109.471   Beta  =  109.471   Gamma =  109.471
     NFFT1 =   64       NFFT2 =   64       NFFT3 =   64
     Cutoff=   10.000   Tol   =0.100E-04
     Ewald Coefficient =  0.27511
     Interpolation order =    4
     TI Mask 1 :1; matches      7 atoms
     TI Mask 2 :2; matches      7 atoms
     TI region 1:       7 atoms
     TI region 2:       7 atoms
Removing charge of      -0.8188 from atom       8
Removing charge of      -0.8188 from atom       9
Removing charge of       0.8054 from atom      10
Removing charge of      -0.1021 from atom      11
Removing charge of      -0.0219 from atom      12
Removing charge of      -0.0219 from atom      13
Removing charge of      -0.0219 from atom      14
Total charge of  -0.99999900 removed from       7 atoms
     Checking for mismatched coordinates.

--------------------------------------------------------------------------------
   3.  ATOMIC COORDINATES AND VELOCITIES
--------------------------------------------------------------------------------

default_name
 begin time read from input coords =   200.000 ps

 Number of triangulated 3-point waters found:        0

     Sum of charges for TI region  1 =  -0.99999900
     Assuming uniform neutralizing plasma

     Sum of charges for TI region  2 =   0.00000000
     Forcing neutrality...

--------------------------------------------------------------------------------
   4.  RESULTS
 NSTEP =     1000   TIME(PS) =     202.000  TEMP(K) =   193.72  PRESS =     0.2
 Etot   =        16.3365  EKtot   =         3.4646  EPtot      =        12.8718
 BOND   =         1.4109  ANGLE   =         4.7863  DIHED      =         5.2872
 1-4 NB =         0.2400  1-4 EEL =         4.5628  VDWAALS    =        -0.0001
 EELEC  =        -3.4152  EHBOND  =         0.0000  RESTRAINT  =         0.0000
 EKCMT  =         0.4796  VIRIAL  =        -0.2733  VOLUME     =    231034.2845
                                                    Density    =         0.0004
 DV/DL  =        -2.6237
 ------------------------------------------------------------------------------

      A V E R A G E S   O V E R    1000 S T E P S

 NSTEP =     1000   TIME(PS) =     202.000  TEMP(K) =   294.81  PRESS =     0.3
 Etot   =        18.4939  EKtot   =         5.2725  EPtot      =        13.2214
 BOND   =         0.8976  ANGLE   =         5.4467  DIHED      =         5.2590
 1-4 NB =         0.4482  1-4 EEL =         4.5847  VDWAALS    =        -0.0001
 EELEC  =        -3.4146  EHBOND  =         0.0000  RESTRAINT  =         0.0000
 EKCMT  =         1.6065  VIRIAL  =         0.0633  VOLUME     =    231035.5959
                                                    Density    =         0.0004
 DV/DL  =        -2.6752
 ------------------------------------------------------------------------------

      R M S  F L U C T U A T I O N S

 NSTEP =     1000   TIME(PS) =     202.000  TEMP(K) =   117.06  PRESS =     0.3
 Etot   =         3.0800  EKtot   =         2.0935  EPtot      =         1.7879
 BOND   =         0.6577  ANGLE   =         1.5165  DIHED      =         0.0547
 1-4 NB =         0.2585  1-4 EEL =         0.0654  VDWAALS    =         0.0000
 EELEC  =         0.0012  EHBOND  =         0.0000  RESTRAINT  =         0.0000
 EKCMT  =         1.1304  VIRIAL  =         1.9680  VOLUME     =         0.9218
                                                    Density    =         0.0000
 DV/DL  =         0.1495
 ------------------------------------------------------------------------------

      A V E R A G E S   O V E R    1000 S T E P S

 NSTEP =     1000   TIME(PS) =     202.000  TEMP(K) =   294.81  PRESS =     0.3
 Etot   =        18.4939  EKtot   =         5.2725  EPtot      =        13.2214
 BOND   =         0.8976  ANGLE   =         5.4467  DIHED      =         5.2590
 1-4 NB =         0.4482  1-4 EEL =         4.5847  VDWAALS    =        -0.0001
 EELEC  =        -3.4146  EHBOND  =         0.0000  RESTRAINT  =         0.0000
 EKCMT  =         1.6065  VIRIAL  =         0.0633  VOLUME     =    231035.5959
                                                    Density    =         0.0004
 DV/DL  =        -2.6752
 ------------------------------------------------------------------------------

      R M S  F L U C T U A T I O N S

 NSTEP =     1000   TIME(PS) =     202.000  TEMP(K) =   117.06  PRESS =     0.3
 Etot   =         3.0800  EKtot   =         2.0935  EPtot      =         1.7879
 BOND   =         0.6577  ANGLE   =         1.5165  DIHED      =         0.0547
 1-4 NB =         0.2585  1-4 EEL =         0.0654  VDWAALS    =         0.0000
 EELEC  =         0.0012  EHBOND  =         0.0000  RESTRAINT  =         0.0000
 EKCMT  =         1.1304  VIRIAL  =         1.9680  VOLUME     =         0.9218
                                                    Density    =         0.0000
 DV/DL  =         0.1495
 ------------------------------------------------------------------------------

      DV/DL, AVERAGES OVER    1000 STEPS

 NSTEP =     1000   TIME(PS) =     202.000  TEMP(K) =   117.06  PRESS =     0.0
 Etot   =         0.0000  EKtot   =         0.0000  EPtot      =        -2.6752
 BOND   =         0.0000  ANGLE   =         0.0000  DIHED      =         0.0000
 1-4 NB =         0.0000  1-4 EEL =       -10.4821  VDWAALS    =         0.0000
 EELEC  =         7.8069  EHBOND  =         0.0000  RESTRAINT  =         0.0000
 EKCMT  =         0.0000  VIRIAL  =         0.0000  VOLUME     =         0.0000
                                                    Density    =         0.0000
 DV/DL  =        -2.6752
 ------------------------------------------------------------------------------

      A V E R A G E S   O V E R    1000 S T E P S

 NSTEP =     2000   TIME(PS) =     204.000  TEMP(K) =   261.58  PRESS =    -0.1
 Etot   =        17.7905  EKtot   =         4.6782  EPtot      =        13.1122
 BOND   =         0.5524  ANGLE   =         5.6893  DIHED      =         5.2604
 1-4 NB =         0.4402  1-4 EEL =         4.5853  VDWAALS    =        -0.0001
 EELEC  =        -3.4152  EHBOND  =         0.0000  RESTRAINT  =         0.0000
 EKCMT  =         1.2820  VIRIAL  =         1.5999  VOLUME     =    231032.1855
                                                    Density    =         0.0004
 DV/DL  =        -2.6751
 ------------------------------------------------------------------------------

      R M S  F L U C T U A T I O N S

 NSTEP =     2000   TIME(PS) =     204.000  TEMP(K) =    72.36  PRESS =     0.2
 Etot   =         1.2869  EKtot   =         1.2941  EPtot      =         1.2693
 BOND   =         0.4022  ANGLE   =         1.1840  DIHED      =         0.0547
 1-4 NB =         0.1889  1-4 EEL =         0.0449  VDWAALS    =         0.0000
 EELEC  =         0.0012  EHBOND  =         0.0000  RESTRAINT  =         0.0000
 EKCMT  =         1.4582  VIRIAL  =         0.8656  VOLUME     =         1.3480
                                                    Density    =         0.0000
 DV/DL  =         0.1026
 ------------------------------------------------------------------------------

      A V E R A G E S   O V E R    1000 S T E P S

 NSTEP =     2000   TIME(PS) =     204.000  TEMP(K) =   261.58  PRESS =    -0.1
 Etot   =        17.7905  EKtot   =         4.6782  EPtot      =        13.1122
 BOND   =         0.5524  ANGLE   =         5.6893  DIHED      =         5.2604
 1-4 NB =         0.4402  1-4 EEL =         4.5853  VDWAALS    =        -0.0001
 EELEC  =        -3.4152  EHBOND  =         0.0000  RESTRAINT  =         0.0000
 EKCMT  =         1.2820  VIRIAL  =         1.5999  VOLUME     =    231032.1855
                                                    Density    =         0.0004
 DV/DL  =        -2.6751
 ------------------------------------------------------------------------------

      R M S  F L U C T U A T I O N S

 NSTEP =     2000   TIME(PS) =     204.000  TEMP(K) =    72.36  PRESS =     0.2
 Etot   =         1.2869  EKtot   =         1.2941  EPtot      =         1.2693
 BOND   =         0.4022  ANGLE   =         1.1840  DIHED      =         0.0547
 1-4 NB =         0.1889  1-4 EEL =         0.0449  VDWAALS    =         0.0000
 EELEC  =         0.0012  EHBOND  =         0.0000  RESTRAINT  =         0.0000
 EKCMT  =         1.4582  VIRIAL  =         0.8656  VOLUME     =         1.3480
                                                    Density    =         0.0000
 DV/DL  =         0.1026
 ------------------------------------------------------------------------------

      DV/DL, AVERAGES OVER    1000 STEPS

 NSTEP =     2000   TIME(PS) =     204.000  TEMP(K) =    72.36  PRESS =     0.0
 Etot   =         0.0000  EKtot   =         0.0000  EPtot      =        -2.6751
 BOND   =         0.0000  ANGLE   =         0.0000  DIHED      =         0.0000
 1-4 NB =         0.0000  1-4 EEL =       -10.4835  VDWAALS    =         0.0000
 EELEC  =         7.8084  EHBOND  =         0.0000  RESTRAINT  =         0.0000
 EKCMT  =         0.0000  VIRIAL  =         0.0000  VOLUME     =         0.0000
                                                    Density    =         0.0000
 DV/DL  =        -2.6751
 ------------------------------------------------------------------------------

      A V E R A G E S   O V E R    1000 S T E P S

 NSTEP =   500000   TIME(PS) =    1200.000  TEMP(K) =   298.75  PRESS =     0.5
 Etot   =        18.6820  EKtot   =         5.3430  EPtot      =        13.3390
 BOND   =         0.8874  ANGLE   =         5.5728  DIHED      =         5.2781
 1-4 NB =         0.4320  1-4 EEL =         4.5895  VDWAALS    =        -0.0001
 EELEC  =        -3.4207  EHBOND  =         0.0000  RESTRAINT  =         0.0000
 EKCMT  =         0.8554  VIRIAL  =        -1.5874  VOLUME     =    229833.2054
                                                    Density    =         0.0004
 DV/DL  =        -2.6723
 ------------------------------------------------------------------------------

      R M S  F L U C T U A T I O N S

 NSTEP =   500000   TIME(PS) =    1200.000  TEMP(K) =    73.54  PRESS =     0.3
 Etot   =         1.2537  EKtot   =         1.3152  EPtot      =         1.2803
 BOND   =         0.5838  ANGLE   =         1.1295  DIHED      =         0.0843
 1-4 NB =         0.2186  1-4 EEL =         0.0627  VDWAALS    =         0.0000
 EELEC  =         0.0012  EHBOND  =         0.0000  RESTRAINT  =         0.0000
 EKCMT  =         0.6844  VIRIAL  =         1.0916  VOLUME     =         0.4778
                                                    Density    =         0.0000
 DV/DL  =         0.1432
 ------------------------------------------------------------------------------

      A V E R A G E S   O V E R    1000 S T E P S

 NSTEP =   500000   TIME(PS) =    1200.000  TEMP(K) =   298.75  PRESS =     0.5
 Etot   =        18.6820  EKtot   =         5.3430  EPtot      =        13.3390
 BOND   =         0.8874  ANGLE   =         5.5728  DIHED      =         5.2781
 1-4 NB =         0.4320  1-4 EEL =         4.5895  VDWAALS    =        -0.0001
 EELEC  =        -3.4207  EHBOND  =         0.0000  RESTRAINT  =         0.0000
 EKCMT  =         0.8554  VIRIAL  =        -1.5874  VOLUME     =    229833.2054
                                                    Density    =         0.0004
 DV/DL  =        -2.6723
 ------------------------------------------------------------------------------

      R M S  F L U C T U A T I O N S

 NSTEP =   500000   TIME(PS) =    1200.000  TEMP(K) =    73.54  PRESS =     0.3
 Etot   =         1.2537  EKtot   =         1.3152  EPtot      =         1.2803
 BOND   =         0.5838  ANGLE   =         1.1295  DIHED      =         0.0843
 1-4 NB =         0.2186  1-4 EEL =         0.0627  VDWAALS    =         0.0000
 EELEC  =         0.0012  EHBOND  =         0.0000  RESTRAINT  =         0.0000
 EKCMT  =         0.6844  VIRIAL  =         1.0916  VOLUME     =         0.4778
                                                    Density    =         0.0000
 DV/DL  =         0.1432
 ------------------------------------------------------------------------------

      DV/DL, AVERAGES OVER    1000 STEPS

 NSTEP =   500000   TIME(PS) =    1200.000  TEMP(K) =    73.54  PRESS =     0.0
 Etot   =         0.0000  EKtot   =         0.0000  EPtot      =        -2.6723
 BOND   =         0.0000  ANGLE   =         0.0000  DIHED      =         0.0000
 1-4 NB =         0.0000  1-4 EEL =       -10.4933  VDWAALS    =         0.0000
 EELEC  =         7.8210  EHBOND  =         0.0000  RESTRAINT  =         0.0000
 EKCMT  =         0.0000  VIRIAL  =         0.0000  VOLUME     =         0.0000
                                                    Density    =         0.0000
 DV/DL  =        -2.6723
 ------------------------------------------------------------------------------

      A V E R A G E S   O V E R  500000 S T E P S

 NSTEP =   500000   TIME(PS) =    1200.000  TEMP(K) =   298.81  PRESS =     0.4
 Etot   =        18.3396  EKtot   =         5.3442  EPtot      =        12.9954
 BOND   =         0.9716  ANGLE   =         5.1476  DIHED      =         5.2796
 1-4 NB =         0.4280  1-4 EEL =         4.5865  VDWAALS    =        -0.0001
 EELEC  =        -3.4179  EHBOND  =         0.0000  RESTRAINT  =         0.0000
 EKCMT  =         1.7522  VIRIAL  =        -0.3716  VOLUME     =    230425.9944
                                                    Density    =         0.0004
 DV/DL  =        -2.6719
 ------------------------------------------------------------------------------

      R M S  F L U C T U A T I O N S

 NSTEP =   500000   TIME(PS) =    1200.000  TEMP(K) =   101.22  PRESS =     0.4
 Etot   =         2.4224  EKtot   =         1.8103  EPtot      =         1.5400
 BOND   =         0.8020  ANGLE   =         1.2284  DIHED      =         0.0892
 1-4 NB =         0.2507  1-4 EEL =         0.0748  VDWAALS    =         0.0000
 EELEC  =         0.0021  EHBOND  =         0.0000  RESTRAINT  =         0.0000
 EKCMT  =         1.4080  VIRIAL  =         1.7236  VOLUME     =       346.5012
                                                    Density    =         0.0000
 DV/DL  =         0.1711
 ------------------------------------------------------------------------------

      A V E R A G E S   O V E R  500000 S T E P S

 NSTEP =   500000   TIME(PS) =    1200.000  TEMP(K) =   298.81  PRESS =     0.4
 Etot   =        18.3396  EKtot   =         5.3442  EPtot      =        12.9954
 BOND   =         0.9716  ANGLE   =         5.1476  DIHED      =         5.2796
 1-4 NB =         0.4280  1-4 EEL =         4.5865  VDWAALS    =        -0.0001
 EELEC  =        -3.4179  EHBOND  =         0.0000  RESTRAINT  =         0.0000
 EKCMT  =         1.7522  VIRIAL  =        -0.3716  VOLUME     =    230425.9944
                                                    Density    =         0.0004
 DV/DL  =        -2.6719
 ------------------------------------------------------------------------------

      R M S  F L U C T U A T I O N S

 NSTEP =   500000   TIME(PS) =    1200.000  TEMP(K) =   101.22  PRESS =     0.4
 Etot   =         2.4224  EKtot   =         1.8103  EPtot      =         1.5400
 BOND   =         0.8020  ANGLE   =         1.2284  DIHED      =         0.0892
 1-4 NB =         0.2507  1-4 EEL =         0.0748  VDWAALS    =         0.0000
 EELEC  =         0.0021  EHBOND  =         0.0000  RESTRAINT  =         0.0000
 EKCMT  =         1.4080  VIRIAL  =         1.7236  VOLUME     =       346.5012
                                                    Density    =         0.0000
 DV/DL  =         0.1711
 ------------------------------------------------------------------------------

      DV/DL, AVERAGES OVER  500000 STEPS

 NSTEP =   500000   TIME(PS) =    1200.000  TEMP(K) =   101.22  PRESS =     0.0
 Etot   =         0.0000  EKtot   =         0.0000  EPtot      =        -2.6719
 BOND   =         0.0000  ANGLE   =         0.0000  DIHED      =         0.0000
 1-4 NB =         0.0000  1-4 EEL =       -10.4863  VDWAALS    =         0.0000
 EELEC  =         7.8145  EHBOND  =         0.0000  RESTRAINT  =         0.0000
 EKCMT  =         0.0000  VIRIAL  =         0.0000  VOLUME     =         0.0000
                                                    Density    =         0.0000
 DV/DL  =        -2.6719
 ------------------------------------------------------------------------------
