-------------------------------------------------------
          Amber 18 PMEMD                              2018
          -------------------------------------------------------

  [-O]verwriting output

File Assignments:

 Here is the input file:

 &cntrl
   nstlim=500000, nscm=1000,
   ntx=5, irest=1, ntpr=1000,
   tempi=300.0, temp0=300.0, ntt=3, gamma_ln=2.0,
   ntp=1, pres0=1.01325, taup=5.0,
   ntb=2, igb=0, cut=10.0,
   dt=0.002, ig=-1,
   ntc=2, ntf=2,
   iwrap=0,
   ntwr=1000, ntwx=50000, ntave=1000,
   ioutfm=1, ntwv=-1,
   ifsc = 0, icfe=1,
   clambda=0.68392,
   timask1=':1',
   timask2=':2', crgmask = ':2',
/

Note: ig = -1. Setting random seed to   563038 based on wallclock time in
      microseconds.

--------------------------------------------------------------------------------
   1.  RESOURCE   USE:
--------------------------------------------------------------------------------

 getting box info from netcdf restart file
 NATOM  =   20855 NTYPES =       6 NBONH =   20847 MBONA  =       6
 NTHETH =      12 MTHETA =       6 NPHIH =      24 MPHIA  =       2
 NHPARM =       0 NPARM  =       0 NNB   =   27832 NRES   =    6949
 NBONA  =       6 NTHETA =       6 NPHIA =       2 NUMBND =       5
 NUMANG =       4 NPTRA  =       3 NATYP =       6 NPHB   =       1
 IFBOX  =       2 NMXRS  =       7 IFCAP =       0 NEXTRA =       0
 NCOPY  =       0

     BOX TYPE: TRUNCATED OCTAHEDRON

--------------------------------------------------------------------------------
   2.  CONTROL  DATA  FOR  THE  RUN
--------------------------------------------------------------------------------

default_name

General flags:
     imin    =       0, nmropt  =       0

Nature and format of input:
     ntx     =       5, irest   =       1, ntrx    =       1

Nature and format of output:
     ntxo    =       2, ntpr    =    1000, ntrx    =       1, ntwr    =    1000
     iwrap   =       0, ntwx    =   50000, ntwv    =      -1, ntwe    =       0
     ioutfm  =       1, ntwprt  =       0, idecomp =       0, rbornstat=      0

Potential function:
     ntf     =       2, ntb     =       2, igb     =       0, nsnb    =      25
     ipol    =       0, gbsa    =       0, iesp    =       0
     dielc   =   1.00000, cut     =  10.00000, intdiel =   1.00000

Frozen or restrained atoms:
     ibelly  =       0, ntr     =       0

Molecular dynamics:
     nstlim  =    500000, nscm    =      1000, nrespa  =         1
     t       =   0.00000, dt      =   0.00200, vlimit  =  -1.00000

Langevin dynamics temperature regulation:
     ig      =  563038
     temp0   = 300.00000, tempi   = 300.00000, gamma_ln=   2.00000

Pressure regulation:
     ntp     =       1
     pres0   =   1.01325, comp    =  44.60000, taup    =   5.00000

SHAKE:
     ntc     =       2, jfastw  =       0
     tol     =   0.00001

Free energy options:
     icfe    =       1, ifsc    =       0, klambda =       1
     clambda =  0.6839, scalpha =  0.5000, scbeta  = 12.0000
     sceeorder =       2
     dynlmb =  0.0000 logdvdl =       0

Ewald parameters:
     verbose =       0, ew_type =       0, nbflag  =       1, use_pme =       1
     vdwmeth =       1, eedmeth =       1, netfrc  =       1
     Box X =   66.953   Box Y =   66.953   Box Z =   66.953
     Alpha =  109.471   Beta  =  109.471   Gamma =  109.471
     NFFT1 =   64       NFFT2 =   64       NFFT3 =   64
     Cutoff=   10.000   Tol   =0.100E-04
     Ewald Coefficient =  0.27511
     Interpolation order =    4
     TI Mask 1 :1; matches      7 atoms
     TI Mask 2 :2; matches      7 atoms
     TI region 1:   20848 atoms
     TI region 2:   20848 atoms
Removing charge of      -0.8188 from atom       8
Removing charge of      -0.8188 from atom       9
Removing charge of       0.8054 from atom      10
Removing charge of      -0.1021 from atom      11
Removing charge of      -0.0219 from atom      12
Removing charge of      -0.0219 from atom      13
Removing charge of      -0.0219 from atom      14
Total charge of  -0.99999900 removed from       7 atoms
     Checking for mismatched coordinates.

--------------------------------------------------------------------------------
   3.  ATOMIC COORDINATES AND VELOCITIES
--------------------------------------------------------------------------------

default_name
 begin time read from input coords =   200.000 ps

 Number of triangulated 3-point waters found:     6947

     Sum of charges for TI region  1 =  -0.99999900
     Assuming uniform neutralizing plasma

     Sum of charges for TI region  2 =   0.00000000
     Forcing neutrality...

--------------------------------------------------------------------------------
   4.  RESULTS
 NSTEP =     1000   TIME(PS) =     202.000  TEMP(K) =   299.53  PRESS =  -821.6
 Etot   =    -52806.1870  EKtot   =     12410.6046  EPtot      =    -65216.7916
 BOND   =         0.8103  ANGLE   =         5.3261  DIHED      =         5.2607
 1-4 NB =         0.4325  1-4 EEL =         3.3338  VDWAALS    =      9576.6235
 EELEC  =    -74808.5785  EHBOND  =         0.0000  RESTRAINT  =         0.0000
 EKCMT  =      6232.0121  VIRIAL  =     10266.6172  VOLUME     =    227446.0064
                                                    Density    =         0.9142
 DV/DL  =        36.7186
 ------------------------------------------------------------------------------

      A V E R A G E S   O V E R    1000 S T E P S

 NSTEP =     1000   TIME(PS) =     202.000  TEMP(K) =   300.29  PRESS =  -877.9
 Etot   =    -52688.0684  EKtot   =     12441.9766  EPtot      =    -65130.0450
 BOND   =         0.9318  ANGLE   =         4.9431  DIHED      =         5.2687
 1-4 NB =         0.4323  1-4 EEL =         3.3186  VDWAALS    =      9540.8673
 EELEC  =    -74685.8067  EHBOND  =         0.0000  RESTRAINT  =         0.0000
 EKCMT  =      6247.2442  VIRIAL  =     10592.5692  VOLUME     =    229184.9472
                                                    Density    =         0.9073
 DV/DL  =        49.8270
 ------------------------------------------------------------------------------

      R M S  F L U C T U A T I O N S

 NSTEP =     1000   TIME(PS) =     202.000  TEMP(K) =     1.79  PRESS =   106.5
 Etot   =        75.0952  EKtot   =        73.9696  EPtot      =        92.1291
 BOND   =         0.7890  ANGLE   =         1.0108  DIHED      =         0.0807
 1-4 NB =         0.2037  1-4 EEL =         0.0462  VDWAALS    =       100.9412
 EELEC  =       156.6877  EHBOND  =         0.0000  RESTRAINT  =         0.0000
 EKCMT  =        52.8969  VIRIAL  =       529.1223  VOLUME     =      1038.0925
                                                    Density    =         0.0041
 DV/DL  =         9.6685
 ------------------------------------------------------------------------------

      A V E R A G E S   O V E R    1000 S T E P S

 NSTEP =     1000   TIME(PS) =     202.000  TEMP(K) =   300.29  PRESS =  -877.9
 Etot   =    -52688.0684  EKtot   =     12441.9766  EPtot      =    -65130.0450
 BOND   =         0.9318  ANGLE   =         4.9431  DIHED      =         5.2687
 1-4 NB =         0.4323  1-4 EEL =         3.3186  VDWAALS    =      9540.8673
 EELEC  =    -74685.8067  EHBOND  =         0.0000  RESTRAINT  =         0.0000
 EKCMT  =      6247.2442  VIRIAL  =     10592.5692  VOLUME     =    229184.9472
                                                    Density    =         0.9073
 DV/DL  =        49.8270
 ------------------------------------------------------------------------------

      R M S  F L U C T U A T I O N S

 NSTEP =     1000   TIME(PS) =     202.000  TEMP(K) =     1.79  PRESS =   106.5
 Etot   =        75.0952  EKtot   =        73.9696  EPtot      =        92.1291
 BOND   =         0.7890  ANGLE   =         1.0108  DIHED      =         0.0807
 1-4 NB =         0.2037  1-4 EEL =         0.0462  VDWAALS    =       100.9412
 EELEC  =       156.6877  EHBOND  =         0.0000  RESTRAINT  =         0.0000
 EKCMT  =        52.8969  VIRIAL  =       529.1223  VOLUME     =      1038.0925
                                                    Density    =         0.0041
 DV/DL  =         9.6685
 ------------------------------------------------------------------------------

      DV/DL, AVERAGES OVER    1000 STEPS

 NSTEP =     1000   TIME(PS) =     202.000  TEMP(K) =     1.79  PRESS =     0.0
 Etot   =         0.0000  EKtot   =         0.0000  EPtot      =        49.8270
 BOND   =         0.0000  ANGLE   =         0.0000  DIHED      =         0.0000
 1-4 NB =         0.0000  1-4 EEL =       -10.4992  VDWAALS    =         0.0000
 EELEC  =        60.3262  EHBOND  =         0.0000  RESTRAINT  =         0.0000
 EKCMT  =         0.0000  VIRIAL  =         0.0000  VOLUME     =         0.0000
                                                    Density    =         0.0000
 DV/DL  =        49.8270
 ------------------------------------------------------------------------------

      A V E R A G E S   O V E R    1000 S T E P S

 NSTEP =     2000   TIME(PS) =     204.000  TEMP(K) =   299.88  PRESS =  -790.4
 Etot   =    -52908.6885  EKtot   =     12425.0527  EPtot      =    -65333.7412
 BOND   =         0.6158  ANGLE   =         4.5552  DIHED      =         5.2901
 1-4 NB =         0.4016  1-4 EEL =         3.3167  VDWAALS    =      9573.9003
 EELEC  =    -74921.8210  EHBOND  =         0.0000  RESTRAINT  =         0.0000
 EKCMT  =      6247.5981  VIRIAL  =     10101.7831  VOLUME     =    225868.9908
                                                    Density    =         0.9206
 DV/DL  =        51.0484
 ------------------------------------------------------------------------------

      R M S  F L U C T U A T I O N S

 NSTEP =     2000   TIME(PS) =     204.000  TEMP(K) =     1.68  PRESS =   114.3
 Etot   =       151.8876  EKtot   =        69.6067  EPtot      =       143.3956
 BOND   =         0.4371  ANGLE   =         0.7754  DIHED      =         0.0926
 1-4 NB =         0.1836  1-4 EEL =         0.0400  VDWAALS    =       116.2845
 EELEC  =       183.4333  EHBOND  =         0.0000  RESTRAINT  =         0.0000
 EKCMT  =        58.5138  VIRIAL  =       550.3935  VOLUME     =       912.4899
                                                    Density    =         0.0037
 DV/DL  =        11.9107
 ------------------------------------------------------------------------------

      A V E R A G E S   O V E R    1000 S T E P S

 NSTEP =     2000   TIME(PS) =     204.000  TEMP(K) =   299.88  PRESS =  -790.4
 Etot   =    -52908.6885  EKtot   =     12425.0527  EPtot      =    -65333.7412
 BOND   =         0.6158  ANGLE   =         4.5552  DIHED      =         5.2901
 1-4 NB =         0.4016  1-4 EEL =         3.3167  VDWAALS    =      9573.9003
 EELEC  =    -74921.8210  EHBOND  =         0.0000  RESTRAINT  =         0.0000
 EKCMT  =      6247.5981  VIRIAL  =     10101.7831  VOLUME     =    225868.9908
                                                    Density    =         0.9206
 DV/DL  =        51.0484
 ------------------------------------------------------------------------------

      R M S  F L U C T U A T I O N S

 NSTEP =     2000   TIME(PS) =     204.000  TEMP(K) =     1.68  PRESS =   114.3
 Etot   =       151.8876  EKtot   =        69.6067  EPtot      =       143.3956
 BOND   =         0.4371  ANGLE   =         0.7754  DIHED      =         0.0926
 1-4 NB =         0.1836  1-4 EEL =         0.0400  VDWAALS    =       116.2845
 EELEC  =       183.4333  EHBOND  =         0.0000  RESTRAINT  =         0.0000
 EKCMT  =        58.5138  VIRIAL  =       550.3935  VOLUME     =       912.4899
                                                    Density    =         0.0037
 DV/DL  =        11.9107
 ------------------------------------------------------------------------------

      DV/DL, AVERAGES OVER    1000 STEPS

 NSTEP =     2000   TIME(PS) =     204.000  TEMP(K) =     1.68  PRESS =     0.0
 Etot   =         0.0000  EKtot   =         0.0000  EPtot      =        51.0484
 BOND   =         0.0000  ANGLE   =         0.0000  DIHED      =         0.0000
 1-4 NB =         0.0000  1-4 EEL =       -10.4932  VDWAALS    =         0.0000
 EELEC  =        61.5416  EHBOND  =         0.0000  RESTRAINT  =         0.0000
 EKCMT  =         0.0000  VIRIAL  =         0.0000  VOLUME     =         0.0000
                                                    Density    =         0.0000
 DV/DL  =        51.0484
 ------------------------------------------------------------------------------

      A V E R A G E S   O V E R    1000 S T E P S

 NSTEP =   500000   TIME(PS) =    1200.000  TEMP(K) =   300.09  PRESS =    69.9
 Etot   =    -53875.1923  EKtot   =     12433.7986  EPtot      =    -66308.9909
 BOND   =         1.3955  ANGLE   =         5.0950  DIHED      =         5.2789
 1-4 NB =         0.4719  1-4 EEL =         3.3178  VDWAALS    =      9968.9828
 EELEC  =    -76293.5328  EHBOND  =         0.0000  RESTRAINT  =         0.0000
 EKCMT  =      6246.2617  VIRIAL  =      5927.4334  VOLUME     =    211337.8320
                                                    Density    =         0.9839
 DV/DL  =        48.7936
 ------------------------------------------------------------------------------

      R M S  F L U C T U A T I O N S

 NSTEP =   500000   TIME(PS) =    1200.000  TEMP(K) =     1.81  PRESS =   109.4
 Etot   =       117.1897  EKtot   =        74.8422  EPtot      =       103.0704
 BOND   =         0.9820  ANGLE   =         1.1422  DIHED      =         0.1065
 1-4 NB =         0.3599  1-4 EEL =         0.0855  VDWAALS    =       112.5310
 EELEC  =       174.4649  EHBOND  =         0.0000  RESTRAINT  =         0.0000
 EKCMT  =        55.6599  VIRIAL  =       508.2628  VOLUME     =        86.4077
                                                    Density    =         0.0004
 DV/DL  =        12.3040
 ------------------------------------------------------------------------------

      A V E R A G E S   O V E R    1000 S T E P S

 NSTEP =   500000   TIME(PS) =    1200.000  TEMP(K) =   300.09  PRESS =    69.9
 Etot   =    -53875.1923  EKtot   =     12433.7986  EPtot      =    -66308.9909
 BOND   =         1.3955  ANGLE   =         5.0950  DIHED      =         5.2789
 1-4 NB =         0.4719  1-4 EEL =         3.3178  VDWAALS    =      9968.9828
 EELEC  =    -76293.5328  EHBOND  =         0.0000  RESTRAINT  =         0.0000
 EKCMT  =      6246.2617  VIRIAL  =      5927.4334  VOLUME     =    211337.8320
                                                    Density    =         0.9839
 DV/DL  =        48.7936
 ------------------------------------------------------------------------------

      R M S  F L U C T U A T I O N S

 NSTEP =   500000   TIME(PS) =    1200.000  TEMP(K) =     1.81  PRESS =   109.4
 Etot   =       117.1897  EKtot   =        74.8422  EPtot      =       103.0704
 BOND   =         0.9820  ANGLE   =         1.1422  DIHED      =         0.1065
 1-4 NB =         0.3599  1-4 EEL =         0.0855  VDWAALS    =       112.5310
 EELEC  =       174.4649  EHBOND  =         0.0000  RESTRAINT  =         0.0000
 EKCMT  =        55.6599  VIRIAL  =       508.2628  VOLUME     =        86.4077
                                                    Density    =         0.0004
 DV/DL  =        12.3040
 ------------------------------------------------------------------------------

      DV/DL, AVERAGES OVER    1000 STEPS

 NSTEP =   500000   TIME(PS) =    1200.000  TEMP(K) =     1.81  PRESS =     0.0
 Etot   =         0.0000  EKtot   =         0.0000  EPtot      =        48.7936
 BOND   =         0.0000  ANGLE   =         0.0000  DIHED      =         0.0000
 1-4 NB =         0.0000  1-4 EEL =       -10.4966  VDWAALS    =         0.0000
 EELEC  =        59.2903  EHBOND  =         0.0000  RESTRAINT  =         0.0000
 EKCMT  =         0.0000  VIRIAL  =         0.0000  VOLUME     =         0.0000
                                                    Density    =         0.0000
 DV/DL  =        48.7936
 ------------------------------------------------------------------------------

      A V E R A G E S   O V E R  500000 S T E P S

 NSTEP =   500000   TIME(PS) =    1200.000  TEMP(K) =   300.08  PRESS =    -8.9
 Etot   =    -53817.0009  EKtot   =     12433.2572  EPtot      =    -66250.2581
 BOND   =         0.9659  ANGLE   =         5.2001  DIHED      =         5.2820
 1-4 NB =         0.4465  1-4 EEL =         3.3182  VDWAALS    =      9905.9619
 EELEC  =    -76171.4327  EHBOND  =         0.0000  RESTRAINT  =         0.0000
 EKCMT  =      6237.0049  VIRIAL  =      6279.7314  VOLUME     =    211736.4089
                                                    Density    =         0.9821
 DV/DL  =        52.2173
 ------------------------------------------------------------------------------

      R M S  F L U C T U A T I O N S

 NSTEP =   500000   TIME(PS) =    1200.000  TEMP(K) =     2.05  PRESS =   148.3
 Etot   =       167.3595  EKtot   =        85.0999  EPtot      =       144.5814
 BOND   =         0.7857  ANGLE   =         1.2536  DIHED      =         0.0905
 1-4 NB =         0.2635  1-4 EEL =         0.0540  VDWAALS    =       127.3080
 EELEC  =       221.9429  EHBOND  =         0.0000  RESTRAINT  =         0.0000
 EKCMT  =        60.8115  VIRIAL  =       685.9547  VOLUME     =      1308.0579
                                                    Density    =         0.0057
 DV/DL  =        10.3688
 ------------------------------------------------------------------------------

      A V E R A G E S   O V E R  500000 S T E P S

 NSTEP =   500000   TIME(PS) =    1200.000  TEMP(K) =   300.08  PRESS =    -8.9
 Etot   =    -53817.0009  EKtot   =     12433.2572  EPtot      =    -66250.2581
 BOND   =         0.9659  ANGLE   =         5.2001  DIHED      =         5.2820
 1-4 NB =         0.4465  1-4 EEL =         3.3182  VDWAALS    =      9905.9619
 EELEC  =    -76171.4327  EHBOND  =         0.0000  RESTRAINT  =         0.0000
 EKCMT  =      6237.0049  VIRIAL  =      6279.7314  VOLUME     =    211736.4089
                                                    Density    =         0.9821
 DV/DL  =        52.2173
 ------------------------------------------------------------------------------

      R M S  F L U C T U A T I O N S

 NSTEP =   500000   TIME(PS) =    1200.000  TEMP(K) =     2.05  PRESS =   148.3
 Etot   =       167.3595  EKtot   =        85.0999  EPtot      =       144.5814
 BOND   =         0.7857  ANGLE   =         1.2536  DIHED      =         0.0905
 1-4 NB =         0.2635  1-4 EEL =         0.0540  VDWAALS    =       127.3080
 EELEC  =       221.9429  EHBOND  =         0.0000  RESTRAINT  =         0.0000
 EKCMT  =        60.8115  VIRIAL  =       685.9547  VOLUME     =      1308.0579
                                                    Density    =         0.0057
 DV/DL  =        10.3688
 ------------------------------------------------------------------------------

      DV/DL, AVERAGES OVER  500000 STEPS

 NSTEP =   500000   TIME(PS) =    1200.000  TEMP(K) =     2.05  PRESS =     0.0
 Etot   =         0.0000  EKtot   =         0.0000  EPtot      =        52.2173
 BOND   =         0.0000  ANGLE   =         0.0000  DIHED      =         0.0000
 1-4 NB =         0.0000  1-4 EEL =       -10.4981  VDWAALS    =         0.0000
 EELEC  =        62.7154  EHBOND  =         0.0000  RESTRAINT  =         0.0000
 EKCMT  =         0.0000  VIRIAL  =         0.0000  VOLUME     =         0.0000
                                                    Density    =         0.0000
 DV/DL  =        52.2173
 ------------------------------------------------------------------------------
