-------------------------------------------------------
          Amber 18 PMEMD                              2018
          -------------------------------------------------------

  [-O]verwriting output

File Assignments:

 Here is the input file:

 &cntrl
   nstlim=500000, nscm=1000,
   ntx=5, irest=1, ntpr=1000,
   tempi=300.0, temp0=300.0, ntt=3, gamma_ln=2.0,
   ntp=1, pres0=1.01325, taup=5.0,
   ntb=2, igb=0, cut=10.0,
   dt=0.002, ig=-1,
   ntc=2, ntf=2,
   iwrap=0,
   ntwr=1000, ntwx=50000, ntave=1000,
   ioutfm=1, ntwv=-1,
   ifsc = 0, icfe=1,
   clambda=0.31608,
   timask1=':1',
   timask2=':2', crgmask = ':2',
/

Note: ig = -1. Setting random seed to   498891 based on wallclock time in
      microseconds.

--------------------------------------------------------------------------------
   1.  RESOURCE   USE:
--------------------------------------------------------------------------------

 getting box info from netcdf restart file
 NATOM  =   20855 NTYPES =       6 NBONH =   20847 MBONA  =       6
 NTHETH =      12 MTHETA =       6 NPHIH =      24 MPHIA  =       2
 NHPARM =       0 NPARM  =       0 NNB   =   27832 NRES   =    6949
 NBONA  =       6 NTHETA =       6 NPHIA =       2 NUMBND =       5
 NUMANG =       4 NPTRA  =       3 NATYP =       6 NPHB   =       1
 IFBOX  =       2 NMXRS  =       7 IFCAP =       0 NEXTRA =       0
 NCOPY  =       0

     BOX TYPE: TRUNCATED OCTAHEDRON

--------------------------------------------------------------------------------
   2.  CONTROL  DATA  FOR  THE  RUN
--------------------------------------------------------------------------------

default_name

General flags:
     imin    =       0, nmropt  =       0

Nature and format of input:
     ntx     =       5, irest   =       1, ntrx    =       1

Nature and format of output:
     ntxo    =       2, ntpr    =    1000, ntrx    =       1, ntwr    =    1000
     iwrap   =       0, ntwx    =   50000, ntwv    =      -1, ntwe    =       0
     ioutfm  =       1, ntwprt  =       0, idecomp =       0, rbornstat=      0

Potential function:
     ntf     =       2, ntb     =       2, igb     =       0, nsnb    =      25
     ipol    =       0, gbsa    =       0, iesp    =       0
     dielc   =   1.00000, cut     =  10.00000, intdiel =   1.00000

Frozen or restrained atoms:
     ibelly  =       0, ntr     =       0

Molecular dynamics:
     nstlim  =    500000, nscm    =      1000, nrespa  =         1
     t       =   0.00000, dt      =   0.00200, vlimit  =  -1.00000

Langevin dynamics temperature regulation:
     ig      =  498891
     temp0   = 300.00000, tempi   = 300.00000, gamma_ln=   2.00000

Pressure regulation:
     ntp     =       1
     pres0   =   1.01325, comp    =  44.60000, taup    =   5.00000

SHAKE:
     ntc     =       2, jfastw  =       0
     tol     =   0.00001

Free energy options:
     icfe    =       1, ifsc    =       0, klambda =       1
     clambda =  0.3161, scalpha =  0.5000, scbeta  = 12.0000
     sceeorder =       2
     dynlmb =  0.0000 logdvdl =       0

Ewald parameters:
     verbose =       0, ew_type =       0, nbflag  =       1, use_pme =       1
     vdwmeth =       1, eedmeth =       1, netfrc  =       1
     Box X =   66.953   Box Y =   66.953   Box Z =   66.953
     Alpha =  109.471   Beta  =  109.471   Gamma =  109.471
     NFFT1 =   64       NFFT2 =   64       NFFT3 =   64
     Cutoff=   10.000   Tol   =0.100E-04
     Ewald Coefficient =  0.27511
     Interpolation order =    4
     TI Mask 1 :1; matches      7 atoms
     TI Mask 2 :2; matches      7 atoms
     TI region 1:   20848 atoms
     TI region 2:   20848 atoms
Removing charge of      -0.8188 from atom       8
Removing charge of      -0.8188 from atom       9
Removing charge of       0.8054 from atom      10
Removing charge of      -0.1021 from atom      11
Removing charge of      -0.0219 from atom      12
Removing charge of      -0.0219 from atom      13
Removing charge of      -0.0219 from atom      14
Total charge of  -0.99999900 removed from       7 atoms
     Checking for mismatched coordinates.

--------------------------------------------------------------------------------
   3.  ATOMIC COORDINATES AND VELOCITIES
--------------------------------------------------------------------------------

default_name
 begin time read from input coords =   200.000 ps

 Number of triangulated 3-point waters found:     6947

     Sum of charges for TI region  1 =  -0.99999900
     Assuming uniform neutralizing plasma

     Sum of charges for TI region  2 =   0.00000000
     Forcing neutrality...

--------------------------------------------------------------------------------
   4.  RESULTS
 NSTEP =     1000   TIME(PS) =     202.000  TEMP(K) =   295.11  PRESS =  -590.2
 Etot   =    -52845.3454  EKtot   =     12227.0749  EPtot      =    -65072.4203
 BOND   =         0.9433  ANGLE   =         4.5474  DIHED      =         5.3754
 1-4 NB =         0.4804  1-4 EEL =         7.2807  VDWAALS    =      9632.0559
 EELEC  =    -74723.1034  EHBOND  =         0.0000  RESTRAINT  =         0.0000
 EKCMT  =      6035.5833  VIRIAL  =      8942.7258  VOLUME     =    228139.8865
                                                    Density    =         0.9114
 DV/DL  =       112.9466
 ------------------------------------------------------------------------------

      A V E R A G E S   O V E R    1000 S T E P S

 NSTEP =     1000   TIME(PS) =     202.000  TEMP(K) =   300.94  PRESS =  -707.0
 Etot   =    -52780.8538  EKtot   =     12468.9309  EPtot      =    -65249.7847
 BOND   =         0.9753  ANGLE   =         5.2002  DIHED      =         5.2791
 1-4 NB =         0.3904  1-4 EEL =         7.1529  VDWAALS    =      9575.9225
 EELEC  =    -74844.7052  EHBOND  =         0.0000  RESTRAINT  =         0.0000
 EKCMT  =      6242.8406  VIRIAL  =      9747.2459  VOLUME     =    229582.8044
                                                    Density    =         0.9057
 DV/DL  =       107.5262
 ------------------------------------------------------------------------------

      R M S  F L U C T U A T I O N S

 NSTEP =     1000   TIME(PS) =     202.000  TEMP(K) =     1.58  PRESS =    90.8
 Etot   =        94.0177  EKtot   =        65.2720  EPtot      =        98.0301
 BOND   =         0.7087  ANGLE   =         1.0278  DIHED      =         0.0788
 1-4 NB =         0.2056  1-4 EEL =         0.0984  VDWAALS    =       100.0720
 EELEC  =       162.0585  EHBOND  =         0.0000  RESTRAINT  =         0.0000
 EKCMT  =        63.5269  VIRIAL  =       462.8909  VOLUME     =       829.6501
                                                    Density    =         0.0033
 DV/DL  =         8.7644
 ------------------------------------------------------------------------------

      A V E R A G E S   O V E R    1000 S T E P S

 NSTEP =     1000   TIME(PS) =     202.000  TEMP(K) =   300.94  PRESS =  -707.0
 Etot   =    -52780.8538  EKtot   =     12468.9309  EPtot      =    -65249.7847
 BOND   =         0.9753  ANGLE   =         5.2002  DIHED      =         5.2791
 1-4 NB =         0.3904  1-4 EEL =         7.1529  VDWAALS    =      9575.9225
 EELEC  =    -74844.7052  EHBOND  =         0.0000  RESTRAINT  =         0.0000
 EKCMT  =      6242.8406  VIRIAL  =      9747.2459  VOLUME     =    229582.8044
                                                    Density    =         0.9057
 DV/DL  =       107.5262
 ------------------------------------------------------------------------------

      R M S  F L U C T U A T I O N S

 NSTEP =     1000   TIME(PS) =     202.000  TEMP(K) =     1.58  PRESS =    90.8
 Etot   =        94.0177  EKtot   =        65.2720  EPtot      =        98.0301
 BOND   =         0.7087  ANGLE   =         1.0278  DIHED      =         0.0788
 1-4 NB =         0.2056  1-4 EEL =         0.0984  VDWAALS    =       100.0720
 EELEC  =       162.0585  EHBOND  =         0.0000  RESTRAINT  =         0.0000
 EKCMT  =        63.5269  VIRIAL  =       462.8909  VOLUME     =       829.6501
                                                    Density    =         0.0033
 DV/DL  =         8.7644
 ------------------------------------------------------------------------------

      DV/DL, AVERAGES OVER    1000 STEPS

 NSTEP =     1000   TIME(PS) =     202.000  TEMP(K) =     1.58  PRESS =     0.0
 Etot   =         0.0000  EKtot   =         0.0000  EPtot      =       107.5262
 BOND   =         0.0000  ANGLE   =         0.0000  DIHED      =         0.0000
 1-4 NB =         0.0000  1-4 EEL =       -10.4587  VDWAALS    =         0.0000
 EELEC  =       117.9850  EHBOND  =         0.0000  RESTRAINT  =         0.0000
 EKCMT  =         0.0000  VIRIAL  =         0.0000  VOLUME     =         0.0000
                                                    Density    =         0.0000
 DV/DL  =       107.5262
 ------------------------------------------------------------------------------

      A V E R A G E S   O V E R    1000 S T E P S

 NSTEP =     2000   TIME(PS) =     204.000  TEMP(K) =   300.19  PRESS =  -593.3
 Etot   =    -52971.9940  EKtot   =     12437.9001  EPtot      =    -65409.8941
 BOND   =         0.8610  ANGLE   =         4.5061  DIHED      =         5.2528
 1-4 NB =         0.3566  1-4 EEL =         7.1431  VDWAALS    =      9659.8468
 EELEC  =    -75087.8605  EHBOND  =         0.0000  RESTRAINT  =         0.0000
 EKCMT  =      6227.2419  VIRIAL  =      9134.1434  VOLUME     =    226935.3077
                                                    Density    =         0.9163
 DV/DL  =       114.0599
 ------------------------------------------------------------------------------

      R M S  F L U C T U A T I O N S

 NSTEP =     2000   TIME(PS) =     204.000  TEMP(K) =     1.76  PRESS =   145.5
 Etot   =       104.1302  EKtot   =        72.7346  EPtot      =        95.6004
 BOND   =         0.6477  ANGLE   =         0.7831  DIHED      =         0.0656
 1-4 NB =         0.1857  1-4 EEL =         0.0992  VDWAALS    =       137.5542
 EELEC  =       161.4363  EHBOND  =         0.0000  RESTRAINT  =         0.0000
 EKCMT  =        62.7493  VIRIAL  =       707.9911  VOLUME     =       725.7041
                                                    Density    =         0.0029
 DV/DL  =        11.7301
 ------------------------------------------------------------------------------

      A V E R A G E S   O V E R    1000 S T E P S

 NSTEP =     2000   TIME(PS) =     204.000  TEMP(K) =   300.19  PRESS =  -593.3
 Etot   =    -52971.9940  EKtot   =     12437.9001  EPtot      =    -65409.8941
 BOND   =         0.8610  ANGLE   =         4.5061  DIHED      =         5.2528
 1-4 NB =         0.3566  1-4 EEL =         7.1431  VDWAALS    =      9659.8468
 EELEC  =    -75087.8605  EHBOND  =         0.0000  RESTRAINT  =         0.0000
 EKCMT  =      6227.2419  VIRIAL  =      9134.1434  VOLUME     =    226935.3077
                                                    Density    =         0.9163
 DV/DL  =       114.0599
 ------------------------------------------------------------------------------

      R M S  F L U C T U A T I O N S

 NSTEP =     2000   TIME(PS) =     204.000  TEMP(K) =     1.76  PRESS =   145.5
 Etot   =       104.1302  EKtot   =        72.7346  EPtot      =        95.6004
 BOND   =         0.6477  ANGLE   =         0.7831  DIHED      =         0.0656
 1-4 NB =         0.1857  1-4 EEL =         0.0992  VDWAALS    =       137.5542
 EELEC  =       161.4363  EHBOND  =         0.0000  RESTRAINT  =         0.0000
 EKCMT  =        62.7493  VIRIAL  =       707.9911  VOLUME     =       725.7041
                                                    Density    =         0.0029
 DV/DL  =        11.7301
 ------------------------------------------------------------------------------

      DV/DL, AVERAGES OVER    1000 STEPS

 NSTEP =     2000   TIME(PS) =     204.000  TEMP(K) =     1.76  PRESS =     0.0
 Etot   =         0.0000  EKtot   =         0.0000  EPtot      =       114.0599
 BOND   =         0.0000  ANGLE   =         0.0000  DIHED      =         0.0000
 1-4 NB =         0.0000  1-4 EEL =       -10.4443  VDWAALS    =         0.0000
 EELEC  =       124.5043  EHBOND  =         0.0000  RESTRAINT  =         0.0000
 EKCMT  =         0.0000  VIRIAL  =         0.0000  VOLUME     =         0.0000
                                                    Density    =         0.0000
 DV/DL  =       114.0599
 ------------------------------------------------------------------------------

      A V E R A G E S   O V E R    1000 S T E P S

 NSTEP =   500000   TIME(PS) =    1200.000  TEMP(K) =   300.56  PRESS =   -13.0
 Etot   =    -53774.6042  EKtot   =     12452.9688  EPtot      =    -66227.5730
 BOND   =         0.8648  ANGLE   =         4.9209  DIHED      =         5.2726
 1-4 NB =         0.3729  1-4 EEL =         7.1462  VDWAALS    =      9883.9496
 EELEC  =    -76130.1000  EHBOND  =         0.0000  RESTRAINT  =         0.0000
 EKCMT  =      6247.3818  VIRIAL  =      6306.9863  VOLUME     =    211742.8908
                                                    Density    =         0.9820
 DV/DL  =       114.3742
 ------------------------------------------------------------------------------

      R M S  F L U C T U A T I O N S

 NSTEP =   500000   TIME(PS) =    1200.000  TEMP(K) =     1.74  PRESS =   100.5
 Etot   =        91.2058  EKtot   =        72.0711  EPtot      =        89.1299
 BOND   =         0.5805  ANGLE   =         1.0697  DIHED      =         0.0726
 1-4 NB =         0.2279  1-4 EEL =         0.1227  VDWAALS    =        91.9649
 EELEC  =       129.7767  EHBOND  =         0.0000  RESTRAINT  =         0.0000
 EKCMT  =        43.2393  VIRIAL  =       462.1129  VOLUME     =        12.8431
                                                    Density    =         0.0001
 DV/DL  =         9.4466
 ------------------------------------------------------------------------------

      A V E R A G E S   O V E R    1000 S T E P S

 NSTEP =   500000   TIME(PS) =    1200.000  TEMP(K) =   300.56  PRESS =   -13.0
 Etot   =    -53774.6042  EKtot   =     12452.9688  EPtot      =    -66227.5730
 BOND   =         0.8648  ANGLE   =         4.9209  DIHED      =         5.2726
 1-4 NB =         0.3729  1-4 EEL =         7.1462  VDWAALS    =      9883.9496
 EELEC  =    -76130.1000  EHBOND  =         0.0000  RESTRAINT  =         0.0000
 EKCMT  =      6247.3818  VIRIAL  =      6306.9863  VOLUME     =    211742.8908
                                                    Density    =         0.9820
 DV/DL  =       114.3742
 ------------------------------------------------------------------------------

      R M S  F L U C T U A T I O N S

 NSTEP =   500000   TIME(PS) =    1200.000  TEMP(K) =     1.74  PRESS =   100.5
 Etot   =        91.2058  EKtot   =        72.0711  EPtot      =        89.1299
 BOND   =         0.5805  ANGLE   =         1.0697  DIHED      =         0.0726
 1-4 NB =         0.2279  1-4 EEL =         0.1227  VDWAALS    =        91.9649
 EELEC  =       129.7767  EHBOND  =         0.0000  RESTRAINT  =         0.0000
 EKCMT  =        43.2393  VIRIAL  =       462.1129  VOLUME     =        12.8431
                                                    Density    =         0.0001
 DV/DL  =         9.4466
 ------------------------------------------------------------------------------

      DV/DL, AVERAGES OVER    1000 STEPS

 NSTEP =   500000   TIME(PS) =    1200.000  TEMP(K) =     1.74  PRESS =     0.0
 Etot   =         0.0000  EKtot   =         0.0000  EPtot      =       114.3742
 BOND   =         0.0000  ANGLE   =         0.0000  DIHED      =         0.0000
 1-4 NB =         0.0000  1-4 EEL =       -10.4489  VDWAALS    =         0.0000
 EELEC  =       124.8230  EHBOND  =         0.0000  RESTRAINT  =         0.0000
 EKCMT  =         0.0000  VIRIAL  =         0.0000  VOLUME     =         0.0000
                                                    Density    =         0.0000
 DV/DL  =       114.3742
 ------------------------------------------------------------------------------

      A V E R A G E S   O V E R  500000 S T E P S

 NSTEP =   500000   TIME(PS) =    1200.000  TEMP(K) =   300.09  PRESS =    -8.8
 Etot   =    -53854.4478  EKtot   =     12433.7158  EPtot      =    -66288.1636
 BOND   =         0.9706  ANGLE   =         5.2515  DIHED      =         5.2826
 1-4 NB =         0.3857  1-4 EEL =         7.1520  VDWAALS    =      9910.2172
 EELEC  =    -76217.4232  EHBOND  =         0.0000  RESTRAINT  =         0.0000
 EKCMT  =      6235.2266  VIRIAL  =      6277.3558  VOLUME     =    211706.9134
                                                    Density    =         0.9822
 DV/DL  =       114.5505
 ------------------------------------------------------------------------------

      R M S  F L U C T U A T I O N S

 NSTEP =   500000   TIME(PS) =    1200.000  TEMP(K) =     2.05  PRESS =   145.6
 Etot   =       170.7351  EKtot   =        85.0601  EPtot      =       147.5451
 BOND   =         0.7911  ANGLE   =         1.2454  DIHED      =         0.0921
 1-4 NB =         0.2239  1-4 EEL =         0.1131  VDWAALS    =       127.7971
 EELEC  =       223.9958  EHBOND  =         0.0000  RESTRAINT  =         0.0000
 EKCMT  =        60.8231  VIRIAL  =       671.5641  VOLUME     =      1485.4343
                                                    Density    =         0.0065
 DV/DL  =        10.4861
 ------------------------------------------------------------------------------

      A V E R A G E S   O V E R  500000 S T E P S

 NSTEP =   500000   TIME(PS) =    1200.000  TEMP(K) =   300.09  PRESS =    -8.8
 Etot   =    -53854.4478  EKtot   =     12433.7158  EPtot      =    -66288.1636
 BOND   =         0.9706  ANGLE   =         5.2515  DIHED      =         5.2826
 1-4 NB =         0.3857  1-4 EEL =         7.1520  VDWAALS    =      9910.2172
 EELEC  =    -76217.4232  EHBOND  =         0.0000  RESTRAINT  =         0.0000
 EKCMT  =      6235.2266  VIRIAL  =      6277.3558  VOLUME     =    211706.9134
                                                    Density    =         0.9822
 DV/DL  =       114.5505
 ------------------------------------------------------------------------------

      R M S  F L U C T U A T I O N S

 NSTEP =   500000   TIME(PS) =    1200.000  TEMP(K) =     2.05  PRESS =   145.6
 Etot   =       170.7351  EKtot   =        85.0601  EPtot      =       147.5451
 BOND   =         0.7911  ANGLE   =         1.2454  DIHED      =         0.0921
 1-4 NB =         0.2239  1-4 EEL =         0.1131  VDWAALS    =       127.7971
 EELEC  =       223.9958  EHBOND  =         0.0000  RESTRAINT  =         0.0000
 EKCMT  =        60.8231  VIRIAL  =       671.5641  VOLUME     =      1485.4343
                                                    Density    =         0.0065
 DV/DL  =        10.4861
 ------------------------------------------------------------------------------

      DV/DL, AVERAGES OVER  500000 STEPS

 NSTEP =   500000   TIME(PS) =    1200.000  TEMP(K) =     2.05  PRESS =     0.0
 Etot   =         0.0000  EKtot   =         0.0000  EPtot      =       114.5505
 BOND   =         0.0000  ANGLE   =         0.0000  DIHED      =         0.0000
 1-4 NB =         0.0000  1-4 EEL =       -10.4573  VDWAALS    =         0.0000
 EELEC  =       125.0078  EHBOND  =         0.0000  RESTRAINT  =         0.0000
 EKCMT  =         0.0000  VIRIAL  =         0.0000  VOLUME     =         0.0000
                                                    Density    =         0.0000
 DV/DL  =       114.5505
 ------------------------------------------------------------------------------
