-------------------------------------------------------
          Amber 18 PMEMD                              2018
          -------------------------------------------------------

  [-O]verwriting output

File Assignments:

 Here is the input file:

 &cntrl
   nstlim=500000, nscm=1000,
   ntx=5, irest=1, ntpr=1000,
   tempi=300.0, temp0=300.0, ntt=3, gamma_ln=2.0,
   ntp=1, pres0=1.01325, taup=5.0,
   ntb=2, igb=0, cut=10.0,
   dt=0.002, ig=-1,
   ntc=2, ntf=2,
   iwrap=0,
   ntwr=1000, ntwx=50000, ntave=1000,
   ioutfm=1, ntwv=-1,
   ifsc = 0, icfe=1,
   clambda=0.00922,
   timask1=':1',
   timask2=':2', crgmask = ':2',
/

Note: ig = -1. Setting random seed to   368078 based on wallclock time in
      microseconds.

--------------------------------------------------------------------------------
   1.  RESOURCE   USE:
--------------------------------------------------------------------------------

 getting box info from netcdf restart file
 NATOM  =   20852 NTYPES =       6 NBONH =   20844 MBONA  =       6
 NTHETH =      12 MTHETA =       6 NPHIH =      24 MPHIA  =       2
 NHPARM =       0 NPARM  =       0 NNB   =   27828 NRES   =    6948
 NBONA  =       6 NTHETA =       6 NPHIA =       2 NUMBND =       5
 NUMANG =       4 NPTRA  =       3 NATYP =       6 NPHB   =       1
 IFBOX  =       2 NMXRS  =       7 IFCAP =       0 NEXTRA =       0
 NCOPY  =       0

     BOX TYPE: TRUNCATED OCTAHEDRON

--------------------------------------------------------------------------------
   2.  CONTROL  DATA  FOR  THE  RUN
--------------------------------------------------------------------------------

default_name

General flags:
     imin    =       0, nmropt  =       0

Nature and format of input:
     ntx     =       5, irest   =       1, ntrx    =       1

Nature and format of output:
     ntxo    =       2, ntpr    =    1000, ntrx    =       1, ntwr    =    1000
     iwrap   =       0, ntwx    =   50000, ntwv    =      -1, ntwe    =       0
     ioutfm  =       1, ntwprt  =       0, idecomp =       0, rbornstat=      0

Potential function:
     ntf     =       2, ntb     =       2, igb     =       0, nsnb    =      25
     ipol    =       0, gbsa    =       0, iesp    =       0
     dielc   =   1.00000, cut     =  10.00000, intdiel =   1.00000

Frozen or restrained atoms:
     ibelly  =       0, ntr     =       0

Molecular dynamics:
     nstlim  =    500000, nscm    =      1000, nrespa  =         1
     t       =   0.00000, dt      =   0.00200, vlimit  =  -1.00000

Langevin dynamics temperature regulation:
     ig      =  368078
     temp0   = 300.00000, tempi   = 300.00000, gamma_ln=   2.00000

Pressure regulation:
     ntp     =       1
     pres0   =   1.01325, comp    =  44.60000, taup    =   5.00000

SHAKE:
     ntc     =       2, jfastw  =       0
     tol     =   0.00001

Free energy options:
     icfe    =       1, ifsc    =       0, klambda =       1
     clambda =  0.0092, scalpha =  0.5000, scbeta  = 12.0000
     sceeorder =       2
     dynlmb =  0.0000 logdvdl =       0

Ewald parameters:
     verbose =       0, ew_type =       0, nbflag  =       1, use_pme =       1
     vdwmeth =       1, eedmeth =       1, netfrc  =       1
     Box X =   66.953   Box Y =   66.953   Box Z =   66.953
     Alpha =  109.471   Beta  =  109.471   Gamma =  109.471
     NFFT1 =   64       NFFT2 =   64       NFFT3 =   64
     Cutoff=   10.000   Tol   =0.100E-04
     Ewald Coefficient =  0.27511
     Interpolation order =    4
     TI Mask 1 :1; matches      7 atoms
     TI Mask 2 :2; matches      7 atoms
     TI region 1:   20845 atoms
     TI region 2:   20845 atoms
Removing charge of      -0.8188 from atom       8
Removing charge of      -0.8188 from atom       9
Removing charge of       0.8054 from atom      10
Removing charge of      -0.1021 from atom      11
Removing charge of      -0.0219 from atom      12
Removing charge of      -0.0219 from atom      13
Removing charge of      -0.0219 from atom      14
Total charge of  -0.99999900 removed from       7 atoms
     Checking for mismatched coordinates.

--------------------------------------------------------------------------------
   3.  ATOMIC COORDINATES AND VELOCITIES
--------------------------------------------------------------------------------

default_name
 begin time read from input coords =   200.000 ps

 Number of triangulated 3-point waters found:     6946

     Sum of charges for TI region  1 =  -1.00000662
     Assuming uniform neutralizing plasma

     Sum of charges for TI region  2 =  -0.00000762
     Forcing neutrality...

--------------------------------------------------------------------------------
   4.  RESULTS
 NSTEP =     1000   TIME(PS) =     202.000  TEMP(K) =   299.84  PRESS =  -910.4
 Etot   =    -64213.1835  EKtot   =     12421.3071  EPtot      =    -76634.4906
 BOND   =         1.5300  ANGLE   =         6.3813  DIHED      =         5.6091
 1-4 NB =         0.3464  1-4 EEL =        10.3894  VDWAALS    =     14258.3665
 EELEC  =    -90917.1133  EHBOND  =         0.0000  RESTRAINT  =         0.0000
 EKCMT  =      6248.9526  VIRIAL  =     10705.3365  VOLUME     =    226715.2646
                                                    Density    =         0.9170
 DV/DL  =       174.0559
 ------------------------------------------------------------------------------

      A V E R A G E S   O V E R    1000 S T E P S

 NSTEP =     1000   TIME(PS) =     202.000  TEMP(K) =   300.63  PRESS = -1058.4
 Etot   =    -63982.9032  EKtot   =     12454.3901  EPtot      =    -76437.2932
 BOND   =         0.8393  ANGLE   =         5.1415  DIHED      =         5.2848
 1-4 NB =         0.3206  1-4 EEL =        10.3158  VDWAALS    =     14160.3638
 EELEC  =    -90619.5590  EHBOND  =         0.0000  RESTRAINT  =         0.0000
 EKCMT  =      6220.2800  VIRIAL  =     11450.4337  VOLUME     =    228707.7089
                                                    Density    =         0.9090
 DV/DL  =       179.8929
 ------------------------------------------------------------------------------

      R M S  F L U C T U A T I O N S

 NSTEP =     1000   TIME(PS) =     202.000  TEMP(K) =     1.79  PRESS =   177.7
 Etot   =       131.2041  EKtot   =        74.0263  EPtot      =       110.6897
 BOND   =         0.6587  ANGLE   =         1.1383  DIHED      =         0.1196
 1-4 NB =         0.1835  1-4 EEL =         0.1710  VDWAALS    =       159.8399
 EELEC  =       248.3464  EHBOND  =         0.0000  RESTRAINT  =         0.0000
 EKCMT  =        62.4870  VIRIAL  =       938.0130  VOLUME     =      1220.8288
                                                    Density    =         0.0048
 DV/DL  =         8.3791
 ------------------------------------------------------------------------------

      A V E R A G E S   O V E R    1000 S T E P S

 NSTEP =     1000   TIME(PS) =     202.000  TEMP(K) =   300.63  PRESS = -1058.4
 Etot   =    -63982.9032  EKtot   =     12454.3901  EPtot      =    -76437.2932
 BOND   =         0.8393  ANGLE   =         5.1415  DIHED      =         5.2848
 1-4 NB =         0.3206  1-4 EEL =        10.3158  VDWAALS    =     14160.3638
 EELEC  =    -90619.5590  EHBOND  =         0.0000  RESTRAINT  =         0.0000
 EKCMT  =      6220.2800  VIRIAL  =     11450.4337  VOLUME     =    228707.7089
                                                    Density    =         0.9090
 DV/DL  =       179.8929
 ------------------------------------------------------------------------------

      R M S  F L U C T U A T I O N S

 NSTEP =     1000   TIME(PS) =     202.000  TEMP(K) =     1.79  PRESS =   177.7
 Etot   =       131.2041  EKtot   =        74.0263  EPtot      =       110.6897
 BOND   =         0.6587  ANGLE   =         1.1383  DIHED      =         0.1196
 1-4 NB =         0.1835  1-4 EEL =         0.1710  VDWAALS    =       159.8399
 EELEC  =       248.3464  EHBOND  =         0.0000  RESTRAINT  =         0.0000
 EKCMT  =        62.4870  VIRIAL  =       938.0130  VOLUME     =      1220.8288
                                                    Density    =         0.0048
 DV/DL  =         8.3791
 ------------------------------------------------------------------------------

      DV/DL, AVERAGES OVER    1000 STEPS

 NSTEP =     1000   TIME(PS) =     202.000  TEMP(K) =     1.79  PRESS =     0.0
 Etot   =         0.0000  EKtot   =         0.0000  EPtot      =       179.8929
 BOND   =         0.0000  ANGLE   =         0.0000  DIHED      =         0.0000
 1-4 NB =         0.0000  1-4 EEL =       -10.4118  VDWAALS    =         0.0000
 EELEC  =       190.3047  EHBOND  =         0.0000  RESTRAINT  =         0.0000
 EKCMT  =         0.0000  VIRIAL  =         0.0000  VOLUME     =         0.0000
                                                    Density    =         0.0000
 DV/DL  =       179.8929
 ------------------------------------------------------------------------------

      A V E R A G E S   O V E R    1000 S T E P S

 NSTEP =     2000   TIME(PS) =     204.000  TEMP(K) =   299.98  PRESS =  -797.5
 Etot   =    -64224.2823  EKtot   =     12427.4700  EPtot      =    -76651.7522
 BOND   =         0.8996  ANGLE   =         5.4561  DIHED      =         5.2747
 1-4 NB =         0.3244  1-4 EEL =        10.3235  VDWAALS    =     14336.1712
 EELEC  =    -91010.2017  EHBOND  =         0.0000  RESTRAINT  =         0.0000
 EKCMT  =      6257.3983  VIRIAL  =     10133.3762  VOLUME     =    225019.9668
                                                    Density    =         0.9239
 DV/DL  =       170.4124
 ------------------------------------------------------------------------------

      R M S  F L U C T U A T I O N S

 NSTEP =     2000   TIME(PS) =     204.000  TEMP(K) =     1.68  PRESS =   141.6
 Etot   =        70.4303  EKtot   =        69.4080  EPtot      =        85.1287
 BOND   =         0.6940  ANGLE   =         1.1413  DIHED      =         0.0799
 1-4 NB =         0.1797  1-4 EEL =         0.1526  VDWAALS    =       134.1674
 EELEC  =       173.7733  EHBOND  =         0.0000  RESTRAINT  =         0.0000
 EKCMT  =        57.0515  VIRIAL  =       697.3269  VOLUME     =       947.4697
                                                    Density    =         0.0039
 DV/DL  =         7.4247
 ------------------------------------------------------------------------------

      A V E R A G E S   O V E R    1000 S T E P S

 NSTEP =     2000   TIME(PS) =     204.000  TEMP(K) =   299.98  PRESS =  -797.5
 Etot   =    -64224.2823  EKtot   =     12427.4700  EPtot      =    -76651.7522
 BOND   =         0.8996  ANGLE   =         5.4561  DIHED      =         5.2747
 1-4 NB =         0.3244  1-4 EEL =        10.3235  VDWAALS    =     14336.1712
 EELEC  =    -91010.2017  EHBOND  =         0.0000  RESTRAINT  =         0.0000
 EKCMT  =      6257.3983  VIRIAL  =     10133.3762  VOLUME     =    225019.9668
                                                    Density    =         0.9239
 DV/DL  =       170.4124
 ------------------------------------------------------------------------------

      R M S  F L U C T U A T I O N S

 NSTEP =     2000   TIME(PS) =     204.000  TEMP(K) =     1.68  PRESS =   141.6
 Etot   =        70.4303  EKtot   =        69.4080  EPtot      =        85.1287
 BOND   =         0.6940  ANGLE   =         1.1413  DIHED      =         0.0799
 1-4 NB =         0.1797  1-4 EEL =         0.1526  VDWAALS    =       134.1674
 EELEC  =       173.7733  EHBOND  =         0.0000  RESTRAINT  =         0.0000
 EKCMT  =        57.0515  VIRIAL  =       697.3269  VOLUME     =       947.4697
                                                    Density    =         0.0039
 DV/DL  =         7.4247
 ------------------------------------------------------------------------------

      DV/DL, AVERAGES OVER    1000 STEPS

 NSTEP =     2000   TIME(PS) =     204.000  TEMP(K) =     1.68  PRESS =     0.0
 Etot   =         0.0000  EKtot   =         0.0000  EPtot      =       170.4124
 BOND   =         0.0000  ANGLE   =         0.0000  DIHED      =         0.0000
 1-4 NB =         0.0000  1-4 EEL =       -10.4196  VDWAALS    =         0.0000
 EELEC  =       180.8320  EHBOND  =         0.0000  RESTRAINT  =         0.0000
 EKCMT  =         0.0000  VIRIAL  =         0.0000  VOLUME     =         0.0000
                                                    Density    =         0.0000
 DV/DL  =       170.4124
 ------------------------------------------------------------------------------

      A V E R A G E S   O V E R    1000 S T E P S

 NSTEP =   500000   TIME(PS) =    1200.000  TEMP(K) =   299.96  PRESS =    31.7
 Etot   =    -65025.7834  EKtot   =     12426.4192  EPtot      =    -77452.2026
 BOND   =         0.9370  ANGLE   =         4.9710  DIHED      =         5.2757
 1-4 NB =         0.3329  1-4 EEL =        10.3232  VDWAALS    =     14656.7547
 EELEC  =    -92130.7972  EHBOND  =         0.0000  RESTRAINT  =         0.0000
 EKCMT  =      6221.6776  VIRIAL  =      6079.1911  VOLUME     =    208363.6637
                                                    Density    =         0.9978
 DV/DL  =       187.1454
 ------------------------------------------------------------------------------

      R M S  F L U C T U A T I O N S

 NSTEP =   500000   TIME(PS) =    1200.000  TEMP(K) =     1.97  PRESS =   145.7
 Etot   =        70.5708  EKtot   =        81.5658  EPtot      =        82.2626
 BOND   =         0.7141  ANGLE   =         1.1282  DIHED      =         0.0821
 1-4 NB =         0.2025  1-4 EEL =         0.1678  VDWAALS    =       134.9313
 EELEC  =       168.3270  EHBOND  =         0.0000  RESTRAINT  =         0.0000
 EKCMT  =        51.7729  VIRIAL  =       643.8163  VOLUME     =        78.8948
                                                    Density    =         0.0004
 DV/DL  =        10.0540
 ------------------------------------------------------------------------------

      A V E R A G E S   O V E R    1000 S T E P S

 NSTEP =   500000   TIME(PS) =    1200.000  TEMP(K) =   299.96  PRESS =    31.7
 Etot   =    -65025.7834  EKtot   =     12426.4192  EPtot      =    -77452.2026
 BOND   =         0.9370  ANGLE   =         4.9710  DIHED      =         5.2757
 1-4 NB =         0.3329  1-4 EEL =        10.3232  VDWAALS    =     14656.7547
 EELEC  =    -92130.7972  EHBOND  =         0.0000  RESTRAINT  =         0.0000
 EKCMT  =      6221.6776  VIRIAL  =      6079.1911  VOLUME     =    208363.6637
                                                    Density    =         0.9978
 DV/DL  =       187.1454
 ------------------------------------------------------------------------------

      R M S  F L U C T U A T I O N S

 NSTEP =   500000   TIME(PS) =    1200.000  TEMP(K) =     1.97  PRESS =   145.7
 Etot   =        70.5708  EKtot   =        81.5658  EPtot      =        82.2626
 BOND   =         0.7141  ANGLE   =         1.1282  DIHED      =         0.0821
 1-4 NB =         0.2025  1-4 EEL =         0.1678  VDWAALS    =       134.9313
 EELEC  =       168.3270  EHBOND  =         0.0000  RESTRAINT  =         0.0000
 EKCMT  =        51.7729  VIRIAL  =       643.8163  VOLUME     =        78.8948
                                                    Density    =         0.0004
 DV/DL  =        10.0540
 ------------------------------------------------------------------------------

      DV/DL, AVERAGES OVER    1000 STEPS

 NSTEP =   500000   TIME(PS) =    1200.000  TEMP(K) =     1.97  PRESS =     0.0
 Etot   =         0.0000  EKtot   =         0.0000  EPtot      =       187.1454
 BOND   =         0.0000  ANGLE   =         0.0000  DIHED      =         0.0000
 1-4 NB =         0.0000  1-4 EEL =       -10.4192  VDWAALS    =         0.0000
 EELEC  =       197.5646  EHBOND  =         0.0000  RESTRAINT  =         0.0000
 EKCMT  =         0.0000  VIRIAL  =         0.0000  VOLUME     =         0.0000
                                                    Density    =         0.0000
 DV/DL  =       187.1454
 ------------------------------------------------------------------------------

      A V E R A G E S   O V E R  500000 S T E P S

 NSTEP =   500000   TIME(PS) =    1200.000  TEMP(K) =   299.96  PRESS =   -10.5
 Etot   =    -64989.0318  EKtot   =     12426.5177  EPtot      =    -77415.5495
 BOND   =         0.9707  ANGLE   =         5.5088  DIHED      =         5.2885
 1-4 NB =         0.3382  1-4 EEL =        10.3287  VDWAALS    =     14622.0461
 EELEC  =    -92060.0304  EHBOND  =         0.0000  RESTRAINT  =         0.0000
 EKCMT  =      6234.0170  VIRIAL  =      6284.2134  VOLUME     =    208693.9143
                                                    Density    =         0.9962
 DV/DL  =       177.8335
 ------------------------------------------------------------------------------

      R M S  F L U C T U A T I O N S

 NSTEP =   500000   TIME(PS) =    1200.000  TEMP(K) =     2.06  PRESS =   162.5
 Etot   =       174.2314  EKtot   =        85.2793  EPtot      =       152.6064
 BOND   =         0.7910  ANGLE   =         1.3745  DIHED      =         0.1008
 1-4 NB =         0.1975  1-4 EEL =         0.1602  VDWAALS    =       147.5893
 EELEC  =       251.0850  EHBOND  =         0.0000  RESTRAINT  =         0.0000
 EKCMT  =        60.4634  VIRIAL  =       743.7287  VOLUME     =      1590.6620
                                                    Density    =         0.0071
 DV/DL  =        10.1567
 ------------------------------------------------------------------------------

      A V E R A G E S   O V E R  500000 S T E P S

 NSTEP =   500000   TIME(PS) =    1200.000  TEMP(K) =   299.96  PRESS =   -10.5
 Etot   =    -64989.0318  EKtot   =     12426.5177  EPtot      =    -77415.5495
 BOND   =         0.9707  ANGLE   =         5.5088  DIHED      =         5.2885
 1-4 NB =         0.3382  1-4 EEL =        10.3287  VDWAALS    =     14622.0461
 EELEC  =    -92060.0304  EHBOND  =         0.0000  RESTRAINT  =         0.0000
 EKCMT  =      6234.0170  VIRIAL  =      6284.2134  VOLUME     =    208693.9143
                                                    Density    =         0.9962
 DV/DL  =       177.8335
 ------------------------------------------------------------------------------

      R M S  F L U C T U A T I O N S

 NSTEP =   500000   TIME(PS) =    1200.000  TEMP(K) =     2.06  PRESS =   162.5
 Etot   =       174.2314  EKtot   =        85.2793  EPtot      =       152.6064
 BOND   =         0.7910  ANGLE   =         1.3745  DIHED      =         0.1008
 1-4 NB =         0.1975  1-4 EEL =         0.1602  VDWAALS    =       147.5893
 EELEC  =       251.0850  EHBOND  =         0.0000  RESTRAINT  =         0.0000
 EKCMT  =        60.4634  VIRIAL  =       743.7287  VOLUME     =      1590.6620
                                                    Density    =         0.0071
 DV/DL  =        10.1567
 ------------------------------------------------------------------------------

      DV/DL, AVERAGES OVER  500000 STEPS

 NSTEP =   500000   TIME(PS) =    1200.000  TEMP(K) =     2.06  PRESS =     0.0
 Etot   =         0.0000  EKtot   =         0.0000  EPtot      =       177.8335
 BOND   =         0.0000  ANGLE   =         0.0000  DIHED      =         0.0000
 1-4 NB =         0.0000  1-4 EEL =       -10.4248  VDWAALS    =         0.0000
 EELEC  =       188.2583  EHBOND  =         0.0000  RESTRAINT  =         0.0000
 EKCMT  =         0.0000  VIRIAL  =         0.0000  VOLUME     =         0.0000
                                                    Density    =         0.0000
 DV/DL  =       177.8335
 ------------------------------------------------------------------------------
