-------------------------------------------------------
          Amber 18 PMEMD                              2018
          -------------------------------------------------------

  [-O]verwriting output

File Assignments:

 Here is the input file:

 &cntrl
   nstlim=500000, nscm=1000,
   ntx=5, irest=1, ntpr=1000,
   tempi=300.0, temp0=300.0, ntt=3, gamma_ln=2.0,
   ntp=1, pres0=1.01325, taup=5.0,
   ntb=2, igb=0, cut=10.0,
   dt=0.002, ig=-1,
   ntc=2, ntf=2,
   iwrap=0,
   ntwr=1000, ntwx=50000, ntave=1000,
   ioutfm=1, ntwv=-1,
   ifsc = 0, icfe=1,
   clambda=0.95206,
   timask1=':1',
   timask2=':2', crgmask = ':2',
/

Note: ig = -1. Setting random seed to   420613 based on wallclock time in
      microseconds.

--------------------------------------------------------------------------------
   1.  RESOURCE   USE:
--------------------------------------------------------------------------------

 getting box info from netcdf restart file
 NATOM  =      14 NTYPES =       6 NBONH =       6 MBONA  =       6
 NTHETH =      12 MTHETA =       6 NPHIH =      24 MPHIA  =       2
 NHPARM =       0 NPARM  =       0 NNB   =      44 NRES   =       2
 NBONA  =       6 NTHETA =       6 NPHIA =       2 NUMBND =       3
 NUMANG =       4 NPTRA  =       3 NATYP =       6 NPHB   =       1
 IFBOX  =       2 NMXRS  =       7 IFCAP =       0 NEXTRA =       0
 NCOPY  =       0

     BOX TYPE: TRUNCATED OCTAHEDRON

--------------------------------------------------------------------------------
   2.  CONTROL  DATA  FOR  THE  RUN
--------------------------------------------------------------------------------

default_name

General flags:
     imin    =       0, nmropt  =       0

Nature and format of input:
     ntx     =       5, irest   =       1, ntrx    =       1

Nature and format of output:
     ntxo    =       2, ntpr    =    1000, ntrx    =       1, ntwr    =    1000
     iwrap   =       0, ntwx    =   50000, ntwv    =      -1, ntwe    =       0
     ioutfm  =       1, ntwprt  =       0, idecomp =       0, rbornstat=      0

Potential function:
     ntf     =       2, ntb     =       2, igb     =       0, nsnb    =      25
     ipol    =       0, gbsa    =       0, iesp    =       0
     dielc   =   1.00000, cut     =  10.00000, intdiel =   1.00000

Frozen or restrained atoms:
     ibelly  =       0, ntr     =       0

Molecular dynamics:
     nstlim  =    500000, nscm    =      1000, nrespa  =         1
     t       =   0.00000, dt      =   0.00200, vlimit  =  -1.00000

Langevin dynamics temperature regulation:
     ig      =  420613
     temp0   = 300.00000, tempi   = 300.00000, gamma_ln=   2.00000

Pressure regulation:
     ntp     =       1
     pres0   =   1.01325, comp    =  44.60000, taup    =   5.00000

SHAKE:
     ntc     =       2, jfastw  =       0
     tol     =   0.00001

Free energy options:
     icfe    =       1, ifsc    =       0, klambda =       1
     clambda =  0.9521, scalpha =  0.5000, scbeta  = 12.0000
     sceeorder =       2
     dynlmb =  0.0000 logdvdl =       0

Ewald parameters:
     verbose =       0, ew_type =       0, nbflag  =       1, use_pme =       1
     vdwmeth =       1, eedmeth =       1, netfrc  =       1
     Box X =   66.953   Box Y =   66.953   Box Z =   66.953
     Alpha =  109.471   Beta  =  109.471   Gamma =  109.471
     NFFT1 =   64       NFFT2 =   64       NFFT3 =   64
     Cutoff=   10.000   Tol   =0.100E-04
     Ewald Coefficient =  0.27511
     Interpolation order =    4
     TI Mask 1 :1; matches      7 atoms
     TI Mask 2 :2; matches      7 atoms
     TI region 1:       7 atoms
     TI region 2:       7 atoms
Removing charge of      -0.8188 from atom       8
Removing charge of      -0.8188 from atom       9
Removing charge of       0.8054 from atom      10
Removing charge of      -0.1021 from atom      11
Removing charge of      -0.0219 from atom      12
Removing charge of      -0.0219 from atom      13
Removing charge of      -0.0219 from atom      14
Total charge of  -0.99999900 removed from       7 atoms
     Checking for mismatched coordinates.

--------------------------------------------------------------------------------
   3.  ATOMIC COORDINATES AND VELOCITIES
--------------------------------------------------------------------------------

default_name
 begin time read from input coords =   200.000 ps

 Number of triangulated 3-point waters found:        0

     Sum of charges for TI region  1 =  -0.99999900
     Assuming uniform neutralizing plasma

     Sum of charges for TI region  2 =   0.00000000
     Forcing neutrality...

--------------------------------------------------------------------------------
   4.  RESULTS
 NSTEP =     1000   TIME(PS) =     202.000  TEMP(K) =   465.80  PRESS =     0.4
 Etot   =        20.1611  EKtot   =         8.3308  EPtot      =        11.8304
 BOND   =         1.2940  ANGLE   =         5.0788  DIHED      =         5.2168
 1-4 NB =         0.1239  1-4 EEL =         0.4910  VDWAALS    =        -0.0001
 EELEC  =        -0.3741  EHBOND  =         0.0000  RESTRAINT  =         0.0000
 EKCMT  =         2.7071  VIRIAL  =         0.7087  VOLUME     =    231037.1402
                                                    Density    =         0.0004
 DV/DL  =        -2.4389
 ------------------------------------------------------------------------------

      A V E R A G E S   O V E R    1000 S T E P S

 NSTEP =     1000   TIME(PS) =     202.000  TEMP(K) =   272.59  PRESS =     1.0
 Etot   =        16.7339  EKtot   =         4.8752  EPtot      =        11.8587
 BOND   =         0.7712  ANGLE   =         5.2084  DIHED      =         5.2551
 1-4 NB =         0.4935  1-4 EEL =         0.5050  VDWAALS    =        -0.0001
 EELEC  =        -0.3743  EHBOND  =         0.0000  RESTRAINT  =         0.0000
 EKCMT  =         2.0047  VIRIAL  =        -2.9959  VOLUME     =    231037.5174
                                                    Density    =         0.0004
 DV/DL  =        -2.7264
 ------------------------------------------------------------------------------

      R M S  F L U C T U A T I O N S

 NSTEP =     1000   TIME(PS) =     202.000  TEMP(K) =    87.91  PRESS =     0.6
 Etot   =         1.9808  EKtot   =         1.5722  EPtot      =         1.3592
 BOND   =         0.5967  ANGLE   =         1.1231  DIHED      =         0.0531
 1-4 NB =         0.2742  1-4 EEL =         0.0073  VDWAALS    =         0.0000
 EELEC  =         0.0001  EHBOND  =         0.0000  RESTRAINT  =         0.0000
 EKCMT  =         1.3938  VIRIAL  =         3.3706  VOLUME     =         0.3409
                                                    Density    =         0.0000
 DV/DL  =         0.1522
 ------------------------------------------------------------------------------

      A V E R A G E S   O V E R    1000 S T E P S

 NSTEP =     1000   TIME(PS) =     202.000  TEMP(K) =   272.59  PRESS =     1.0
 Etot   =        16.7339  EKtot   =         4.8752  EPtot      =        11.8587
 BOND   =         0.7712  ANGLE   =         5.2084  DIHED      =         5.2551
 1-4 NB =         0.4935  1-4 EEL =         0.5050  VDWAALS    =        -0.0001
 EELEC  =        -0.3743  EHBOND  =         0.0000  RESTRAINT  =         0.0000
 EKCMT  =         2.0047  VIRIAL  =        -2.9959  VOLUME     =    231037.5174
                                                    Density    =         0.0004
 DV/DL  =        -2.7264
 ------------------------------------------------------------------------------

      R M S  F L U C T U A T I O N S

 NSTEP =     1000   TIME(PS) =     202.000  TEMP(K) =    87.91  PRESS =     0.6
 Etot   =         1.9808  EKtot   =         1.5722  EPtot      =         1.3592
 BOND   =         0.5967  ANGLE   =         1.1231  DIHED      =         0.0531
 1-4 NB =         0.2742  1-4 EEL =         0.0073  VDWAALS    =         0.0000
 EELEC  =         0.0001  EHBOND  =         0.0000  RESTRAINT  =         0.0000
 EKCMT  =         1.3938  VIRIAL  =         3.3706  VOLUME     =         0.3409
                                                    Density    =         0.0000
 DV/DL  =         0.1522
 ------------------------------------------------------------------------------

      DV/DL, AVERAGES OVER    1000 STEPS

 NSTEP =     1000   TIME(PS) =     202.000  TEMP(K) =    87.91  PRESS =     0.0
 Etot   =         0.0000  EKtot   =         0.0000  EPtot      =        -2.7264
 BOND   =         0.0000  ANGLE   =         0.0000  DIHED      =         0.0000
 1-4 NB =         0.0000  1-4 EEL =       -10.5341  VDWAALS    =         0.0000
 EELEC  =         7.8077  EHBOND  =         0.0000  RESTRAINT  =         0.0000
 EKCMT  =         0.0000  VIRIAL  =         0.0000  VOLUME     =         0.0000
                                                    Density    =         0.0000
 DV/DL  =        -2.7264
 ------------------------------------------------------------------------------

      A V E R A G E S   O V E R    1000 S T E P S

 NSTEP =     2000   TIME(PS) =     204.000  TEMP(K) =   339.90  PRESS =     1.3
 Etot   =        17.9754  EKtot   =         6.0790  EPtot      =        11.8964
 BOND   =         0.6221  ANGLE   =         5.4085  DIHED      =         5.2512
 1-4 NB =         0.4846  1-4 EEL =         0.5044  VDWAALS    =        -0.0001
 EELEC  =        -0.3742  EHBOND  =         0.0000  RESTRAINT  =         0.0000
 EKCMT  =         2.6754  VIRIAL  =        -3.5948  VOLUME     =    231037.8879
                                                    Density    =         0.0004
 DV/DL  =        -2.7144
 ------------------------------------------------------------------------------

      R M S  F L U C T U A T I O N S

 NSTEP =     2000   TIME(PS) =     204.000  TEMP(K) =    97.27  PRESS =     0.6
 Etot   =         1.9711  EKtot   =         1.7396  EPtot      =         1.1546
 BOND   =         0.4782  ANGLE   =         0.9986  DIHED      =         0.0411
 1-4 NB =         0.2376  1-4 EEL =         0.0061  VDWAALS    =         0.0000
 EELEC  =         0.0001  EHBOND  =         0.0000  RESTRAINT  =         0.0000
 EKCMT  =         1.3066  VIRIAL  =         2.3045  VOLUME     =         0.3358
                                                    Density    =         0.0000
 DV/DL  =         0.1271
 ------------------------------------------------------------------------------

      A V E R A G E S   O V E R    1000 S T E P S

 NSTEP =     2000   TIME(PS) =     204.000  TEMP(K) =   339.90  PRESS =     1.3
 Etot   =        17.9754  EKtot   =         6.0790  EPtot      =        11.8964
 BOND   =         0.6221  ANGLE   =         5.4085  DIHED      =         5.2512
 1-4 NB =         0.4846  1-4 EEL =         0.5044  VDWAALS    =        -0.0001
 EELEC  =        -0.3742  EHBOND  =         0.0000  RESTRAINT  =         0.0000
 EKCMT  =         2.6754  VIRIAL  =        -3.5948  VOLUME     =    231037.8879
                                                    Density    =         0.0004
 DV/DL  =        -2.7144
 ------------------------------------------------------------------------------

      R M S  F L U C T U A T I O N S

 NSTEP =     2000   TIME(PS) =     204.000  TEMP(K) =    97.27  PRESS =     0.6
 Etot   =         1.9711  EKtot   =         1.7396  EPtot      =         1.1546
 BOND   =         0.4782  ANGLE   =         0.9986  DIHED      =         0.0411
 1-4 NB =         0.2376  1-4 EEL =         0.0061  VDWAALS    =         0.0000
 EELEC  =         0.0001  EHBOND  =         0.0000  RESTRAINT  =         0.0000
 EKCMT  =         1.3066  VIRIAL  =         2.3045  VOLUME     =         0.3358
                                                    Density    =         0.0000
 DV/DL  =         0.1271
 ------------------------------------------------------------------------------

      DV/DL, AVERAGES OVER    1000 STEPS

 NSTEP =     2000   TIME(PS) =     204.000  TEMP(K) =    97.27  PRESS =     0.0
 Etot   =         0.0000  EKtot   =         0.0000  EPtot      =        -2.7144
 BOND   =         0.0000  ANGLE   =         0.0000  DIHED      =         0.0000
 1-4 NB =         0.0000  1-4 EEL =       -10.5210  VDWAALS    =         0.0000
 EELEC  =         7.8066  EHBOND  =         0.0000  RESTRAINT  =         0.0000
 EKCMT  =         0.0000  VIRIAL  =         0.0000  VOLUME     =         0.0000
                                                    Density    =         0.0000
 DV/DL  =        -2.7144
 ------------------------------------------------------------------------------

      A V E R A G E S   O V E R    1000 S T E P S

 NSTEP =   500000   TIME(PS) =    1200.000  TEMP(K) =   279.64  PRESS =     0.8
 Etot   =        17.2100  EKtot   =         5.0013  EPtot      =        12.2086
 BOND   =         0.8304  ANGLE   =         5.4527  DIHED      =         5.2439
 1-4 NB =         0.5512  1-4 EEL =         0.5047  VDWAALS    =        -0.0001
 EELEC  =        -0.3742  EHBOND  =         0.0000  RESTRAINT  =         0.0000
 EKCMT  =         1.9437  VIRIAL  =        -2.2549  VOLUME     =    231203.3644
                                                    Density    =         0.0004
 DV/DL  =        -2.7211
 ------------------------------------------------------------------------------

      R M S  F L U C T U A T I O N S

 NSTEP =   500000   TIME(PS) =    1200.000  TEMP(K) =    88.38  PRESS =     0.6
 Etot   =         2.0280  EKtot   =         1.5807  EPtot      =         1.5457
 BOND   =         0.6313  ANGLE   =         1.2782  DIHED      =         0.0390
 1-4 NB =         0.3444  1-4 EEL =         0.0101  VDWAALS    =         0.0000
 EELEC  =         0.0002  EHBOND  =         0.0000  RESTRAINT  =         0.0000
 EKCMT  =         1.3515  VIRIAL  =         2.2023  VOLUME     =         0.1466
                                                    Density    =         0.0000
 DV/DL  =         0.2116
 ------------------------------------------------------------------------------

      A V E R A G E S   O V E R    1000 S T E P S

 NSTEP =   500000   TIME(PS) =    1200.000  TEMP(K) =   279.64  PRESS =     0.8
 Etot   =        17.2100  EKtot   =         5.0013  EPtot      =        12.2086
 BOND   =         0.8304  ANGLE   =         5.4527  DIHED      =         5.2439
 1-4 NB =         0.5512  1-4 EEL =         0.5047  VDWAALS    =        -0.0001
 EELEC  =        -0.3742  EHBOND  =         0.0000  RESTRAINT  =         0.0000
 EKCMT  =         1.9437  VIRIAL  =        -2.2549  VOLUME     =    231203.3644
                                                    Density    =         0.0004
 DV/DL  =        -2.7211
 ------------------------------------------------------------------------------

      R M S  F L U C T U A T I O N S

 NSTEP =   500000   TIME(PS) =    1200.000  TEMP(K) =    88.38  PRESS =     0.6
 Etot   =         2.0280  EKtot   =         1.5807  EPtot      =         1.5457
 BOND   =         0.6313  ANGLE   =         1.2782  DIHED      =         0.0390
 1-4 NB =         0.3444  1-4 EEL =         0.0101  VDWAALS    =         0.0000
 EELEC  =         0.0002  EHBOND  =         0.0000  RESTRAINT  =         0.0000
 EKCMT  =         1.3515  VIRIAL  =         2.2023  VOLUME     =         0.1466
                                                    Density    =         0.0000
 DV/DL  =         0.2116
 ------------------------------------------------------------------------------

      DV/DL, AVERAGES OVER    1000 STEPS

 NSTEP =   500000   TIME(PS) =    1200.000  TEMP(K) =    88.38  PRESS =     0.0
 Etot   =         0.0000  EKtot   =         0.0000  EPtot      =        -2.7211
 BOND   =         0.0000  ANGLE   =         0.0000  DIHED      =         0.0000
 1-4 NB =         0.0000  1-4 EEL =       -10.5274  VDWAALS    =         0.0000
 EELEC  =         7.8063  EHBOND  =         0.0000  RESTRAINT  =         0.0000
 EKCMT  =         0.0000  VIRIAL  =         0.0000  VOLUME     =         0.0000
                                                    Density    =         0.0000
 DV/DL  =        -2.7211
 ------------------------------------------------------------------------------

      A V E R A G E S   O V E R  500000 S T E P S

 NSTEP =   500000   TIME(PS) =    1200.000  TEMP(K) =   298.82  PRESS =     1.1
 Etot   =        17.3794  EKtot   =         5.3442  EPtot      =        12.0352
 BOND   =         0.9416  ANGLE   =         5.1894  DIHED      =         5.2783
 1-4 NB =         0.4956  1-4 EEL =         0.5048  VDWAALS    =        -0.0001
 EELEC  =        -0.3743  EHBOND  =         0.0000  RESTRAINT  =         0.0000
 EKCMT  =         1.7919  VIRIAL  =        -3.6666  VOLUME     =    231121.5173
                                                    Density    =         0.0004
 DV/DL  =        -2.7222
 ------------------------------------------------------------------------------

      R M S  F L U C T U A T I O N S

 NSTEP =   500000   TIME(PS) =    1200.000  TEMP(K) =    98.04  PRESS =     0.7
 Etot   =         2.3008  EKtot   =         1.7534  EPtot      =         1.5211
 BOND   =         0.7611  ANGLE   =         1.2145  DIHED      =         0.0882
 1-4 NB =         0.2945  1-4 EEL =         0.0083  VDWAALS    =         0.0000
 EELEC  =         0.0001  EHBOND  =         0.0000  RESTRAINT  =         0.0000
 EKCMT  =         1.4602  VIRIAL  =         3.0517  VOLUME     =        52.4391
                                                    Density    =         0.0000
 DV/DL  =         0.1729
 ------------------------------------------------------------------------------

      A V E R A G E S   O V E R  500000 S T E P S

 NSTEP =   500000   TIME(PS) =    1200.000  TEMP(K) =   298.82  PRESS =     1.1
 Etot   =        17.3794  EKtot   =         5.3442  EPtot      =        12.0352
 BOND   =         0.9416  ANGLE   =         5.1894  DIHED      =         5.2783
 1-4 NB =         0.4956  1-4 EEL =         0.5048  VDWAALS    =        -0.0001
 EELEC  =        -0.3743  EHBOND  =         0.0000  RESTRAINT  =         0.0000
 EKCMT  =         1.7919  VIRIAL  =        -3.6666  VOLUME     =    231121.5173
                                                    Density    =         0.0004
 DV/DL  =        -2.7222
 ------------------------------------------------------------------------------

      R M S  F L U C T U A T I O N S

 NSTEP =   500000   TIME(PS) =    1200.000  TEMP(K) =    98.04  PRESS =     0.7
 Etot   =         2.3008  EKtot   =         1.7534  EPtot      =         1.5211
 BOND   =         0.7611  ANGLE   =         1.2145  DIHED      =         0.0882
 1-4 NB =         0.2945  1-4 EEL =         0.0083  VDWAALS    =         0.0000
 EELEC  =         0.0001  EHBOND  =         0.0000  RESTRAINT  =         0.0000
 EKCMT  =         1.4602  VIRIAL  =         3.0517  VOLUME     =        52.4391
                                                    Density    =         0.0000
 DV/DL  =         0.1729
 ------------------------------------------------------------------------------

      DV/DL, AVERAGES OVER  500000 STEPS

 NSTEP =   500000   TIME(PS) =    1200.000  TEMP(K) =    98.04  PRESS =     0.0
 Etot   =         0.0000  EKtot   =         0.0000  EPtot      =        -2.7222
 BOND   =         0.0000  ANGLE   =         0.0000  DIHED      =         0.0000
 1-4 NB =         0.0000  1-4 EEL =       -10.5289  VDWAALS    =         0.0000
 EELEC  =         7.8067  EHBOND  =         0.0000  RESTRAINT  =         0.0000
 EKCMT  =         0.0000  VIRIAL  =         0.0000  VOLUME     =         0.0000
                                                    Density    =         0.0000
 DV/DL  =        -2.7222
 ------------------------------------------------------------------------------
