-------------------------------------------------------
          Amber 18 PMEMD                              2018
          -------------------------------------------------------

  [-O]verwriting output

File Assignments:

 Here is the input file:

 &cntrl
   nstlim=500000, nscm=1000,
   ntx=5, irest=1, ntpr=1000,
   tempi=300.0, temp0=300.0, ntt=3, gamma_ln=2.0,
   ntp=1, pres0=1.01325, taup=5.0,
   ntb=2, igb=0, cut=10.0,
   dt=0.002, ig=-1,
   ntc=2, ntf=2,
   iwrap=0,
   ntwr=1000, ntwx=50000, ntave=1000,
   ioutfm=1, ntwv=-1,
   ifsc = 0, icfe=1,
   clambda=0.31608,
   timask1=':1',
   timask2=':2', crgmask = ':2',
/

Note: ig = -1. Setting random seed to   954332 based on wallclock time in
      microseconds.

--------------------------------------------------------------------------------
   1.  RESOURCE   USE:
--------------------------------------------------------------------------------

 getting box info from netcdf restart file
 NATOM  =      14 NTYPES =       6 NBONH =       6 MBONA  =       6
 NTHETH =      12 MTHETA =       6 NPHIH =      24 MPHIA  =       2
 NHPARM =       0 NPARM  =       0 NNB   =      44 NRES   =       2
 NBONA  =       6 NTHETA =       6 NPHIA =       2 NUMBND =       3
 NUMANG =       4 NPTRA  =       3 NATYP =       6 NPHB   =       1
 IFBOX  =       2 NMXRS  =       7 IFCAP =       0 NEXTRA =       0
 NCOPY  =       0

     BOX TYPE: TRUNCATED OCTAHEDRON

--------------------------------------------------------------------------------
   2.  CONTROL  DATA  FOR  THE  RUN
--------------------------------------------------------------------------------

default_name

General flags:
     imin    =       0, nmropt  =       0

Nature and format of input:
     ntx     =       5, irest   =       1, ntrx    =       1

Nature and format of output:
     ntxo    =       2, ntpr    =    1000, ntrx    =       1, ntwr    =    1000
     iwrap   =       0, ntwx    =   50000, ntwv    =      -1, ntwe    =       0
     ioutfm  =       1, ntwprt  =       0, idecomp =       0, rbornstat=      0

Potential function:
     ntf     =       2, ntb     =       2, igb     =       0, nsnb    =      25
     ipol    =       0, gbsa    =       0, iesp    =       0
     dielc   =   1.00000, cut     =  10.00000, intdiel =   1.00000

Frozen or restrained atoms:
     ibelly  =       0, ntr     =       0

Molecular dynamics:
     nstlim  =    500000, nscm    =      1000, nrespa  =         1
     t       =   0.00000, dt      =   0.00200, vlimit  =  -1.00000

Langevin dynamics temperature regulation:
     ig      =  954332
     temp0   = 300.00000, tempi   = 300.00000, gamma_ln=   2.00000

Pressure regulation:
     ntp     =       1
     pres0   =   1.01325, comp    =  44.60000, taup    =   5.00000

SHAKE:
     ntc     =       2, jfastw  =       0
     tol     =   0.00001

Free energy options:
     icfe    =       1, ifsc    =       0, klambda =       1
     clambda =  0.3161, scalpha =  0.5000, scbeta  = 12.0000
     sceeorder =       2
     dynlmb =  0.0000 logdvdl =       0

Ewald parameters:
     verbose =       0, ew_type =       0, nbflag  =       1, use_pme =       1
     vdwmeth =       1, eedmeth =       1, netfrc  =       1
     Box X =   66.953   Box Y =   66.953   Box Z =   66.953
     Alpha =  109.471   Beta  =  109.471   Gamma =  109.471
     NFFT1 =   64       NFFT2 =   64       NFFT3 =   64
     Cutoff=   10.000   Tol   =0.100E-04
     Ewald Coefficient =  0.27511
     Interpolation order =    4
     TI Mask 1 :1; matches      7 atoms
     TI Mask 2 :2; matches      7 atoms
     TI region 1:       7 atoms
     TI region 2:       7 atoms
Removing charge of      -0.8188 from atom       8
Removing charge of      -0.8188 from atom       9
Removing charge of       0.8054 from atom      10
Removing charge of      -0.1021 from atom      11
Removing charge of      -0.0219 from atom      12
Removing charge of      -0.0219 from atom      13
Removing charge of      -0.0219 from atom      14
Total charge of  -0.99999900 removed from       7 atoms
     Checking for mismatched coordinates.

--------------------------------------------------------------------------------
   3.  ATOMIC COORDINATES AND VELOCITIES
--------------------------------------------------------------------------------

default_name
 begin time read from input coords =   200.000 ps

 Number of triangulated 3-point waters found:        0

     Sum of charges for TI region  1 =  -0.99999900
     Assuming uniform neutralizing plasma

     Sum of charges for TI region  2 =   0.00000000
     Forcing neutrality...

--------------------------------------------------------------------------------
   4.  RESULTS
 NSTEP =     1000   TIME(PS) =     202.000  TEMP(K) =   198.97  PRESS =     0.4
 Etot   =        17.7050  EKtot   =         3.5585  EPtot      =        14.1465
 BOND   =         1.2262  ANGLE   =         5.9682  DIHED      =         5.2520
 1-4 NB =         0.1400  1-4 EEL =         6.8994  VDWAALS    =        -0.0001
 EELEC  =        -5.3392  EHBOND  =         0.0000  RESTRAINT  =         0.0000
 EKCMT  =         3.0238  VIRIAL  =         1.0802  VOLUME     =    231033.6338
                                                    Density    =         0.0004
 DV/DL  =        -2.2813
 ------------------------------------------------------------------------------

      A V E R A G E S   O V E R    1000 S T E P S

 NSTEP =     1000   TIME(PS) =     202.000  TEMP(K) =   227.52  PRESS =     0.2
 Etot   =        16.9964  EKtot   =         4.0691  EPtot      =        12.9273
 BOND   =         0.7538  ANGLE   =         4.7382  DIHED      =         5.2505
 1-4 NB =         0.3727  1-4 EEL =         7.1519  VDWAALS    =        -0.0001
 EELEC  =        -5.3397  EHBOND  =         0.0000  RESTRAINT  =         0.0000
 EKCMT  =         1.4304  VIRIAL  =         0.6736  VOLUME     =    231035.4041
                                                    Density    =         0.0004
 DV/DL  =        -2.6497
 ------------------------------------------------------------------------------

      R M S  F L U C T U A T I O N S

 NSTEP =     1000   TIME(PS) =     202.000  TEMP(K) =    62.27  PRESS =     0.2
 Etot   =         1.0823  EKtot   =         1.1138  EPtot      =         0.8942
 BOND   =         0.5778  ANGLE   =         0.7724  DIHED      =         0.0433
 1-4 NB =         0.2090  1-4 EEL =         0.1090  VDWAALS    =         0.0000
 EELEC  =         0.0021  EHBOND  =         0.0000  RESTRAINT  =         0.0000
 EKCMT  =         1.1510  VIRIAL  =         0.6493  VOLUME     =         1.0273
                                                    Density    =         0.0000
 DV/DL  =         0.1594
 ------------------------------------------------------------------------------

      A V E R A G E S   O V E R    1000 S T E P S

 NSTEP =     1000   TIME(PS) =     202.000  TEMP(K) =   227.52  PRESS =     0.2
 Etot   =        16.9964  EKtot   =         4.0691  EPtot      =        12.9273
 BOND   =         0.7538  ANGLE   =         4.7382  DIHED      =         5.2505
 1-4 NB =         0.3727  1-4 EEL =         7.1519  VDWAALS    =        -0.0001
 EELEC  =        -5.3397  EHBOND  =         0.0000  RESTRAINT  =         0.0000
 EKCMT  =         1.4304  VIRIAL  =         0.6736  VOLUME     =    231035.4041
                                                    Density    =         0.0004
 DV/DL  =        -2.6497
 ------------------------------------------------------------------------------

      R M S  F L U C T U A T I O N S

 NSTEP =     1000   TIME(PS) =     202.000  TEMP(K) =    62.27  PRESS =     0.2
 Etot   =         1.0823  EKtot   =         1.1138  EPtot      =         0.8942
 BOND   =         0.5778  ANGLE   =         0.7724  DIHED      =         0.0433
 1-4 NB =         0.2090  1-4 EEL =         0.1090  VDWAALS    =         0.0000
 EELEC  =         0.0021  EHBOND  =         0.0000  RESTRAINT  =         0.0000
 EKCMT  =         1.1510  VIRIAL  =         0.6493  VOLUME     =         1.0273
                                                    Density    =         0.0000
 DV/DL  =         0.1594
 ------------------------------------------------------------------------------

      DV/DL, AVERAGES OVER    1000 STEPS

 NSTEP =     1000   TIME(PS) =     202.000  TEMP(K) =    62.27  PRESS =     0.0
 Etot   =         0.0000  EKtot   =         0.0000  EPtot      =        -2.6497
 BOND   =         0.0000  ANGLE   =         0.0000  DIHED      =         0.0000
 1-4 NB =         0.0000  1-4 EEL =       -10.4573  VDWAALS    =         0.0000
 EELEC  =         7.8075  EHBOND  =         0.0000  RESTRAINT  =         0.0000
 EKCMT  =         0.0000  VIRIAL  =         0.0000  VOLUME     =         0.0000
                                                    Density    =         0.0000
 DV/DL  =        -2.6497
 ------------------------------------------------------------------------------

      A V E R A G E S   O V E R    1000 S T E P S

 NSTEP =     2000   TIME(PS) =     204.000  TEMP(K) =   270.83  PRESS =    -0.0
 Etot   =        18.3869  EKtot   =         4.8437  EPtot      =        13.5432
 BOND   =         0.8892  ANGLE   =         5.1858  DIHED      =         5.2620
 1-4 NB =         0.3945  1-4 EEL =         7.1520  VDWAALS    =        -0.0001
 EELEC  =        -5.3401  EHBOND  =         0.0000  RESTRAINT  =         0.0000
 EKCMT  =         1.8029  VIRIAL  =         1.8354  VOLUME     =    231031.6639
                                                    Density    =         0.0004
 DV/DL  =        -2.6493
 ------------------------------------------------------------------------------

      R M S  F L U C T U A T I O N S

 NSTEP =     2000   TIME(PS) =     204.000  TEMP(K) =    89.18  PRESS =     0.3
 Etot   =         2.0629  EKtot   =         1.5950  EPtot      =         1.3126
 BOND   =         0.7463  ANGLE   =         1.0283  DIHED      =         0.0572
 1-4 NB =         0.2330  1-4 EEL =         0.1244  VDWAALS    =         0.0000
 EELEC  =         0.0016  EHBOND  =         0.0000  RESTRAINT  =         0.0000
 EKCMT  =         1.2357  VIRIAL  =         0.7851  VOLUME     =         1.3551
                                                    Density    =         0.0000
 DV/DL  =         0.1819
 ------------------------------------------------------------------------------

      A V E R A G E S   O V E R    1000 S T E P S

 NSTEP =     2000   TIME(PS) =     204.000  TEMP(K) =   270.83  PRESS =    -0.0
 Etot   =        18.3869  EKtot   =         4.8437  EPtot      =        13.5432
 BOND   =         0.8892  ANGLE   =         5.1858  DIHED      =         5.2620
 1-4 NB =         0.3945  1-4 EEL =         7.1520  VDWAALS    =        -0.0001
 EELEC  =        -5.3401  EHBOND  =         0.0000  RESTRAINT  =         0.0000
 EKCMT  =         1.8029  VIRIAL  =         1.8354  VOLUME     =    231031.6639
                                                    Density    =         0.0004
 DV/DL  =        -2.6493
 ------------------------------------------------------------------------------

      R M S  F L U C T U A T I O N S

 NSTEP =     2000   TIME(PS) =     204.000  TEMP(K) =    89.18  PRESS =     0.3
 Etot   =         2.0629  EKtot   =         1.5950  EPtot      =         1.3126
 BOND   =         0.7463  ANGLE   =         1.0283  DIHED      =         0.0572
 1-4 NB =         0.2330  1-4 EEL =         0.1244  VDWAALS    =         0.0000
 EELEC  =         0.0016  EHBOND  =         0.0000  RESTRAINT  =         0.0000
 EKCMT  =         1.2357  VIRIAL  =         0.7851  VOLUME     =         1.3551
                                                    Density    =         0.0000
 DV/DL  =         0.1819
 ------------------------------------------------------------------------------

      DV/DL, AVERAGES OVER    1000 STEPS

 NSTEP =     2000   TIME(PS) =     204.000  TEMP(K) =    89.18  PRESS =     0.0
 Etot   =         0.0000  EKtot   =         0.0000  EPtot      =        -2.6493
 BOND   =         0.0000  ANGLE   =         0.0000  DIHED      =         0.0000
 1-4 NB =         0.0000  1-4 EEL =       -10.4574  VDWAALS    =         0.0000
 EELEC  =         7.8081  EHBOND  =         0.0000  RESTRAINT  =         0.0000
 EKCMT  =         0.0000  VIRIAL  =         0.0000  VOLUME     =         0.0000
                                                    Density    =         0.0000
 DV/DL  =        -2.6493
 ------------------------------------------------------------------------------

      A V E R A G E S   O V E R    1000 S T E P S

 NSTEP =   500000   TIME(PS) =    1200.000  TEMP(K) =   332.05  PRESS =     0.2
 Etot   =        19.6432  EKtot   =         5.9387  EPtot      =        13.7045
 BOND   =         0.8643  ANGLE   =         5.3737  DIHED      =         5.2647
 1-4 NB =         0.4016  1-4 EEL =         7.1547  VDWAALS    =        -0.0001
 EELEC  =        -5.3545  EHBOND  =         0.0000  RESTRAINT  =         0.0000
 EKCMT  =         2.0454  VIRIAL  =         1.2089  VOLUME     =    229077.5227
                                                    Density    =         0.0004
 DV/DL  =        -2.6322
 ------------------------------------------------------------------------------

      R M S  F L U C T U A T I O N S

 NSTEP =   500000   TIME(PS) =    1200.000  TEMP(K) =    79.46  PRESS =     0.3
 Etot   =         1.6743  EKtot   =         1.4212  EPtot      =         1.4748
 BOND   =         0.7906  ANGLE   =         1.2494  DIHED      =         0.0658
 1-4 NB =         0.2254  1-4 EEL =         0.1052  VDWAALS    =         0.0000
 EELEC  =         0.0018  EHBOND  =         0.0000  RESTRAINT  =         0.0000
 EKCMT  =         1.4752  VIRIAL  =         0.5646  VOLUME     =         0.9041
                                                    Density    =         0.0000
 DV/DL  =         0.1539
 ------------------------------------------------------------------------------

      A V E R A G E S   O V E R    1000 S T E P S

 NSTEP =   500000   TIME(PS) =    1200.000  TEMP(K) =   332.05  PRESS =     0.2
 Etot   =        19.6432  EKtot   =         5.9387  EPtot      =        13.7045
 BOND   =         0.8643  ANGLE   =         5.3737  DIHED      =         5.2647
 1-4 NB =         0.4016  1-4 EEL =         7.1547  VDWAALS    =        -0.0001
 EELEC  =        -5.3545  EHBOND  =         0.0000  RESTRAINT  =         0.0000
 EKCMT  =         2.0454  VIRIAL  =         1.2089  VOLUME     =    229077.5227
                                                    Density    =         0.0004
 DV/DL  =        -2.6322
 ------------------------------------------------------------------------------

      R M S  F L U C T U A T I O N S

 NSTEP =   500000   TIME(PS) =    1200.000  TEMP(K) =    79.46  PRESS =     0.3
 Etot   =         1.6743  EKtot   =         1.4212  EPtot      =         1.4748
 BOND   =         0.7906  ANGLE   =         1.2494  DIHED      =         0.0658
 1-4 NB =         0.2254  1-4 EEL =         0.1052  VDWAALS    =         0.0000
 EELEC  =         0.0018  EHBOND  =         0.0000  RESTRAINT  =         0.0000
 EKCMT  =         1.4752  VIRIAL  =         0.5646  VOLUME     =         0.9041
                                                    Density    =         0.0000
 DV/DL  =         0.1539
 ------------------------------------------------------------------------------

      DV/DL, AVERAGES OVER    1000 STEPS

 NSTEP =   500000   TIME(PS) =    1200.000  TEMP(K) =    79.46  PRESS =     0.0
 Etot   =         0.0000  EKtot   =         0.0000  EPtot      =        -2.6322
 BOND   =         0.0000  ANGLE   =         0.0000  DIHED      =         0.0000
 1-4 NB =         0.0000  1-4 EEL =       -10.4613  VDWAALS    =         0.0000
 EELEC  =         7.8291  EHBOND  =         0.0000  RESTRAINT  =         0.0000
 EKCMT  =         0.0000  VIRIAL  =         0.0000  VOLUME     =         0.0000
                                                    Density    =         0.0000
 DV/DL  =        -2.6322
 ------------------------------------------------------------------------------

      A V E R A G E S   O V E R  500000 S T E P S

 NSTEP =   500000   TIME(PS) =    1200.000  TEMP(K) =   301.48  PRESS =     0.1
 Etot   =        19.0028  EKtot   =         5.3918  EPtot      =        13.6110
 BOND   =         0.9881  ANGLE   =         5.1441  DIHED      =         5.2795
 1-4 NB =         0.3915  1-4 EEL =         7.1552  VDWAALS    =        -0.0001
 EELEC  =        -5.3474  EHBOND  =         0.0000  RESTRAINT  =         0.0000
 EKCMT  =         1.8223  VIRIAL  =         1.5371  VOLUME     =    230049.9877
                                                    Density    =         0.0004
 DV/DL  =        -2.6433
 ------------------------------------------------------------------------------

      R M S  F L U C T U A T I O N S

 NSTEP =   500000   TIME(PS) =    1200.000  TEMP(K) =    99.38  PRESS =     0.3
 Etot   =         2.2816  EKtot   =         1.7774  EPtot      =         1.4667
 BOND   =         0.7999  ANGLE   =         1.1868  DIHED      =         0.0891
 1-4 NB =         0.2258  1-4 EEL =         0.1145  VDWAALS    =         0.0000
 EELEC  =         0.0048  EHBOND  =         0.0000  RESTRAINT  =         0.0000
 EKCMT  =         1.4607  VIRIAL  =         0.9192  VOLUME     =       565.0458
                                                    Density    =         0.0000
 DV/DL  =         0.1674
 ------------------------------------------------------------------------------

      A V E R A G E S   O V E R  500000 S T E P S

 NSTEP =   500000   TIME(PS) =    1200.000  TEMP(K) =   301.48  PRESS =     0.1
 Etot   =        19.0028  EKtot   =         5.3918  EPtot      =        13.6110
 BOND   =         0.9881  ANGLE   =         5.1441  DIHED      =         5.2795
 1-4 NB =         0.3915  1-4 EEL =         7.1552  VDWAALS    =        -0.0001
 EELEC  =        -5.3474  EHBOND  =         0.0000  RESTRAINT  =         0.0000
 EKCMT  =         1.8223  VIRIAL  =         1.5371  VOLUME     =    230049.9877
                                                    Density    =         0.0004
 DV/DL  =        -2.6433
 ------------------------------------------------------------------------------

      R M S  F L U C T U A T I O N S

 NSTEP =   500000   TIME(PS) =    1200.000  TEMP(K) =    99.38  PRESS =     0.3
 Etot   =         2.2816  EKtot   =         1.7774  EPtot      =         1.4667
 BOND   =         0.7999  ANGLE   =         1.1868  DIHED      =         0.0891
 1-4 NB =         0.2258  1-4 EEL =         0.1145  VDWAALS    =         0.0000
 EELEC  =         0.0048  EHBOND  =         0.0000  RESTRAINT  =         0.0000
 EKCMT  =         1.4607  VIRIAL  =         0.9192  VOLUME     =       565.0458
                                                    Density    =         0.0000
 DV/DL  =         0.1674
 ------------------------------------------------------------------------------

      DV/DL, AVERAGES OVER  500000 STEPS

 NSTEP =   500000   TIME(PS) =    1200.000  TEMP(K) =    99.38  PRESS =     0.0
 Etot   =         0.0000  EKtot   =         0.0000  EPtot      =        -2.6433
 BOND   =         0.0000  ANGLE   =         0.0000  DIHED      =         0.0000
 1-4 NB =         0.0000  1-4 EEL =       -10.4620  VDWAALS    =         0.0000
 EELEC  =         7.8187  EHBOND  =         0.0000  RESTRAINT  =         0.0000
 EKCMT  =         0.0000  VIRIAL  =         0.0000  VOLUME     =         0.0000
                                                    Density    =         0.0000
 DV/DL  =        -2.6433
 ------------------------------------------------------------------------------
