-------------------------------------------------------
          Amber 18 PMEMD                              2018
          -------------------------------------------------------

  [-O]verwriting output

File Assignments:

 Here is the input file:

 &cntrl
   nstlim=500000, nscm=1000,
   ntx=5, irest=1, ntpr=1000,
   tempi=300.0, temp0=300.0, ntt=3, gamma_ln=2.0,
   ntp=1, pres0=1.01325, taup=5.0,
   ntb=2, igb=0, cut=10.0,
   dt=0.002, ig=-1,
   ntc=2, ntf=2,
   iwrap=0,
   ntwr=1000, ntwx=50000, ntave=1000,
   ioutfm=1, ntwv=-1,
   ifsc = 0, icfe=1,
   clambda=0.95206,
   timask1=':1',
   timask2=':2', crgmask = ':2',
/

Note: ig = -1. Setting random seed to   262340 based on wallclock time in
      microseconds.

--------------------------------------------------------------------------------
   1.  RESOURCE   USE:
--------------------------------------------------------------------------------

 getting box info from netcdf restart file
 NATOM  =   20855 NTYPES =       6 NBONH =   20847 MBONA  =       6
 NTHETH =      12 MTHETA =       6 NPHIH =      24 MPHIA  =       2
 NHPARM =       0 NPARM  =       0 NNB   =   27832 NRES   =    6949
 NBONA  =       6 NTHETA =       6 NPHIA =       2 NUMBND =       5
 NUMANG =       4 NPTRA  =       3 NATYP =       6 NPHB   =       1
 IFBOX  =       2 NMXRS  =       7 IFCAP =       0 NEXTRA =       0
 NCOPY  =       0

     BOX TYPE: TRUNCATED OCTAHEDRON

--------------------------------------------------------------------------------
   2.  CONTROL  DATA  FOR  THE  RUN
--------------------------------------------------------------------------------

default_name

General flags:
     imin    =       0, nmropt  =       0

Nature and format of input:
     ntx     =       5, irest   =       1, ntrx    =       1

Nature and format of output:
     ntxo    =       2, ntpr    =    1000, ntrx    =       1, ntwr    =    1000
     iwrap   =       0, ntwx    =   50000, ntwv    =      -1, ntwe    =       0
     ioutfm  =       1, ntwprt  =       0, idecomp =       0, rbornstat=      0

Potential function:
     ntf     =       2, ntb     =       2, igb     =       0, nsnb    =      25
     ipol    =       0, gbsa    =       0, iesp    =       0
     dielc   =   1.00000, cut     =  10.00000, intdiel =   1.00000

Frozen or restrained atoms:
     ibelly  =       0, ntr     =       0

Molecular dynamics:
     nstlim  =    500000, nscm    =      1000, nrespa  =         1
     t       =   0.00000, dt      =   0.00200, vlimit  =  -1.00000

Langevin dynamics temperature regulation:
     ig      =  262340
     temp0   = 300.00000, tempi   = 300.00000, gamma_ln=   2.00000

Pressure regulation:
     ntp     =       1
     pres0   =   1.01325, comp    =  44.60000, taup    =   5.00000

SHAKE:
     ntc     =       2, jfastw  =       0
     tol     =   0.00001

Free energy options:
     icfe    =       1, ifsc    =       0, klambda =       1
     clambda =  0.9521, scalpha =  0.5000, scbeta  = 12.0000
     sceeorder =       2
     dynlmb =  0.0000 logdvdl =       0

Ewald parameters:
     verbose =       0, ew_type =       0, nbflag  =       1, use_pme =       1
     vdwmeth =       1, eedmeth =       1, netfrc  =       1
     Box X =   66.953   Box Y =   66.953   Box Z =   66.953
     Alpha =  109.471   Beta  =  109.471   Gamma =  109.471
     NFFT1 =   64       NFFT2 =   64       NFFT3 =   64
     Cutoff=   10.000   Tol   =0.100E-04
     Ewald Coefficient =  0.27511
     Interpolation order =    4
     TI Mask 1 :1; matches      7 atoms
     TI Mask 2 :2; matches      7 atoms
     TI region 1:   20848 atoms
     TI region 2:   20848 atoms
Removing charge of      -0.8188 from atom       8
Removing charge of      -0.8188 from atom       9
Removing charge of       0.8054 from atom      10
Removing charge of      -0.1021 from atom      11
Removing charge of      -0.0219 from atom      12
Removing charge of      -0.0219 from atom      13
Removing charge of      -0.0219 from atom      14
Total charge of  -0.99999900 removed from       7 atoms
     Checking for mismatched coordinates.

--------------------------------------------------------------------------------
   3.  ATOMIC COORDINATES AND VELOCITIES
--------------------------------------------------------------------------------

default_name
 begin time read from input coords =   200.000 ps

 Number of triangulated 3-point waters found:     6947

     Sum of charges for TI region  1 =  -0.99999900
     Assuming uniform neutralizing plasma

     Sum of charges for TI region  2 =   0.00000000
     Forcing neutrality...

--------------------------------------------------------------------------------
   4.  RESULTS
 NSTEP =     1000   TIME(PS) =     202.000  TEMP(K) =   299.48  PRESS =  -777.0
 Etot   =    -52685.2089  EKtot   =     12408.2163  EPtot      =    -65093.4252
 BOND   =         0.9346  ANGLE   =         7.3532  DIHED      =         5.5179
 1-4 NB =         0.8404  1-4 EEL =         0.5122  VDWAALS    =      9490.5737
 EELEC  =    -74599.1572  EHBOND  =         0.0000  RESTRAINT  =         0.0000
 EKCMT  =      6243.6971  VIRIAL  =     10060.6540  VOLUME     =    227526.3142
                                                    Density    =         0.9139
 DV/DL  =        11.9985
 ------------------------------------------------------------------------------

      A V E R A G E S   O V E R    1000 S T E P S

 NSTEP =     1000   TIME(PS) =     202.000  TEMP(K) =   301.53  PRESS =  -858.1
 Etot   =    -52502.2820  EKtot   =     12493.4197  EPtot      =    -64995.7017
 BOND   =         0.7840  ANGLE   =         5.0202  DIHED      =         5.2989
 1-4 NB =         0.4928  1-4 EEL =         0.5048  VDWAALS    =      9464.3739
 EELEC  =    -74472.1763  EHBOND  =         0.0000  RESTRAINT  =         0.0000
 EKCMT  =      6241.3868  VIRIAL  =     10489.2997  VOLUME     =    229194.0960
                                                    Density    =         0.9072
 DV/DL  =        13.9475
 ------------------------------------------------------------------------------

      R M S  F L U C T U A T I O N S

 NSTEP =     1000   TIME(PS) =     202.000  TEMP(K) =     2.11  PRESS =   128.8
 Etot   =       192.7877  EKtot   =        87.5233  EPtot      =       162.3222
 BOND   =         0.5737  ANGLE   =         0.9152  DIHED      =         0.1083
 1-4 NB =         0.2709  1-4 EEL =         0.0081  VDWAALS    =       134.5928
 EELEC  =       257.1323  EHBOND  =         0.0000  RESTRAINT  =         0.0000
 EKCMT  =        59.2723  VIRIAL  =       658.6726  VOLUME     =      1004.3555
                                                    Density    =         0.0040
 DV/DL  =         9.7491
 ------------------------------------------------------------------------------

      A V E R A G E S   O V E R    1000 S T E P S

 NSTEP =     1000   TIME(PS) =     202.000  TEMP(K) =   301.53  PRESS =  -858.1
 Etot   =    -52502.2820  EKtot   =     12493.4197  EPtot      =    -64995.7017
 BOND   =         0.7840  ANGLE   =         5.0202  DIHED      =         5.2989
 1-4 NB =         0.4928  1-4 EEL =         0.5048  VDWAALS    =      9464.3739
 EELEC  =    -74472.1763  EHBOND  =         0.0000  RESTRAINT  =         0.0000
 EKCMT  =      6241.3868  VIRIAL  =     10489.2997  VOLUME     =    229194.0960
                                                    Density    =         0.9072
 DV/DL  =        13.9475
 ------------------------------------------------------------------------------

      R M S  F L U C T U A T I O N S

 NSTEP =     1000   TIME(PS) =     202.000  TEMP(K) =     2.11  PRESS =   128.8
 Etot   =       192.7877  EKtot   =        87.5233  EPtot      =       162.3222
 BOND   =         0.5737  ANGLE   =         0.9152  DIHED      =         0.1083
 1-4 NB =         0.2709  1-4 EEL =         0.0081  VDWAALS    =       134.5928
 EELEC  =       257.1323  EHBOND  =         0.0000  RESTRAINT  =         0.0000
 EKCMT  =        59.2723  VIRIAL  =       658.6726  VOLUME     =      1004.3555
                                                    Density    =         0.0040
 DV/DL  =         9.7491
 ------------------------------------------------------------------------------

      DV/DL, AVERAGES OVER    1000 STEPS

 NSTEP =     1000   TIME(PS) =     202.000  TEMP(K) =     2.11  PRESS =     0.0
 Etot   =         0.0000  EKtot   =         0.0000  EPtot      =        13.9475
 BOND   =         0.0000  ANGLE   =         0.0000  DIHED      =         0.0000
 1-4 NB =         0.0000  1-4 EEL =       -10.5301  VDWAALS    =         0.0000
 EELEC  =        24.4776  EHBOND  =         0.0000  RESTRAINT  =         0.0000
 EKCMT  =         0.0000  VIRIAL  =         0.0000  VOLUME     =         0.0000
                                                    Density    =         0.0000
 DV/DL  =        13.9475
 ------------------------------------------------------------------------------

      A V E R A G E S   O V E R    1000 S T E P S

 NSTEP =     2000   TIME(PS) =     204.000  TEMP(K) =   300.41  PRESS =  -713.6
 Etot   =    -52880.8100  EKtot   =     12447.0093  EPtot      =    -65327.8192
 BOND   =         0.9680  ANGLE   =         5.0729  DIHED      =         5.2916
 1-4 NB =         0.4876  1-4 EEL =         0.5051  VDWAALS    =      9611.0294
 EELEC  =    -74951.1739  EHBOND  =         0.0000  RESTRAINT  =         0.0000
 EKCMT  =      6244.9400  VIRIAL  =      9728.2826  VOLUME     =    226071.9910
                                                    Density    =         0.9198
 DV/DL  =         9.6311
 ------------------------------------------------------------------------------

      R M S  F L U C T U A T I O N S

 NSTEP =     2000   TIME(PS) =     204.000  TEMP(K) =     2.03  PRESS =    92.5
 Etot   =       168.7315  EKtot   =        84.0236  EPtot      =       129.1090
 BOND   =         0.7453  ANGLE   =         1.1676  DIHED      =         0.0892
 1-4 NB =         0.2551  1-4 EEL =         0.0076  VDWAALS    =        97.7086
 EELEC  =       181.4496  EHBOND  =         0.0000  RESTRAINT  =         0.0000
 EKCMT  =        62.8193  VIRIAL  =       462.3096  VOLUME     =       851.3130
                                                    Density    =         0.0035
 DV/DL  =         8.5355
 ------------------------------------------------------------------------------

      A V E R A G E S   O V E R    1000 S T E P S

 NSTEP =     2000   TIME(PS) =     204.000  TEMP(K) =   300.41  PRESS =  -713.6
 Etot   =    -52880.8100  EKtot   =     12447.0093  EPtot      =    -65327.8192
 BOND   =         0.9680  ANGLE   =         5.0729  DIHED      =         5.2916
 1-4 NB =         0.4876  1-4 EEL =         0.5051  VDWAALS    =      9611.0294
 EELEC  =    -74951.1739  EHBOND  =         0.0000  RESTRAINT  =         0.0000
 EKCMT  =      6244.9400  VIRIAL  =      9728.2826  VOLUME     =    226071.9910
                                                    Density    =         0.9198
 DV/DL  =         9.6311
 ------------------------------------------------------------------------------

      R M S  F L U C T U A T I O N S

 NSTEP =     2000   TIME(PS) =     204.000  TEMP(K) =     2.03  PRESS =    92.5
 Etot   =       168.7315  EKtot   =        84.0236  EPtot      =       129.1090
 BOND   =         0.7453  ANGLE   =         1.1676  DIHED      =         0.0892
 1-4 NB =         0.2551  1-4 EEL =         0.0076  VDWAALS    =        97.7086
 EELEC  =       181.4496  EHBOND  =         0.0000  RESTRAINT  =         0.0000
 EKCMT  =        62.8193  VIRIAL  =       462.3096  VOLUME     =       851.3130
                                                    Density    =         0.0035
 DV/DL  =         8.5355
 ------------------------------------------------------------------------------

      DV/DL, AVERAGES OVER    1000 STEPS

 NSTEP =     2000   TIME(PS) =     204.000  TEMP(K) =     2.03  PRESS =     0.0
 Etot   =         0.0000  EKtot   =         0.0000  EPtot      =         9.6311
 BOND   =         0.0000  ANGLE   =         0.0000  DIHED      =         0.0000
 1-4 NB =         0.0000  1-4 EEL =       -10.5369  VDWAALS    =         0.0000
 EELEC  =        20.1680  EHBOND  =         0.0000  RESTRAINT  =         0.0000
 EKCMT  =         0.0000  VIRIAL  =         0.0000  VOLUME     =         0.0000
                                                    Density    =         0.0000
 DV/DL  =         9.6311
 ------------------------------------------------------------------------------

      A V E R A G E S   O V E R    1000 S T E P S

 NSTEP =   500000   TIME(PS) =    1200.000  TEMP(K) =   299.64  PRESS =    27.6
 Etot   =    -53808.7854  EKtot   =     12414.8305  EPtot      =    -66223.6159
 BOND   =         1.3994  ANGLE   =         5.0921  DIHED      =         5.2844
 1-4 NB =         0.5237  1-4 EEL =         0.5050  VDWAALS    =      9910.7925
 EELEC  =    -76147.2130  EHBOND  =         0.0000  RESTRAINT  =         0.0000
 EKCMT  =      6229.2587  VIRIAL  =      6103.3156  VOLUME     =    211608.3558
                                                    Density    =         0.9826
 DV/DL  =        15.5031
 ------------------------------------------------------------------------------

      R M S  F L U C T U A T I O N S

 NSTEP =   500000   TIME(PS) =    1200.000  TEMP(K) =     2.03  PRESS =   100.4
 Etot   =        60.3352  EKtot   =        84.0777  EPtot      =        64.6817
 BOND   =         1.2928  ANGLE   =         1.0507  DIHED      =         0.0768
 1-4 NB =         0.3567  1-4 EEL =         0.0109  VDWAALS    =       102.6765
 EELEC  =       133.9848  EHBOND  =         0.0000  RESTRAINT  =         0.0000
 EKCMT  =        72.0108  VIRIAL  =       452.7564  VOLUME     =        25.0599
                                                    Density    =         0.0001
 DV/DL  =         7.5659
 ------------------------------------------------------------------------------

      A V E R A G E S   O V E R    1000 S T E P S

 NSTEP =   500000   TIME(PS) =    1200.000  TEMP(K) =   299.64  PRESS =    27.6
 Etot   =    -53808.7854  EKtot   =     12414.8305  EPtot      =    -66223.6159
 BOND   =         1.3994  ANGLE   =         5.0921  DIHED      =         5.2844
 1-4 NB =         0.5237  1-4 EEL =         0.5050  VDWAALS    =      9910.7925
 EELEC  =    -76147.2130  EHBOND  =         0.0000  RESTRAINT  =         0.0000
 EKCMT  =      6229.2587  VIRIAL  =      6103.3156  VOLUME     =    211608.3558
                                                    Density    =         0.9826
 DV/DL  =        15.5031
 ------------------------------------------------------------------------------

      R M S  F L U C T U A T I O N S

 NSTEP =   500000   TIME(PS) =    1200.000  TEMP(K) =     2.03  PRESS =   100.4
 Etot   =        60.3352  EKtot   =        84.0777  EPtot      =        64.6817
 BOND   =         1.2928  ANGLE   =         1.0507  DIHED      =         0.0768
 1-4 NB =         0.3567  1-4 EEL =         0.0109  VDWAALS    =       102.6765
 EELEC  =       133.9848  EHBOND  =         0.0000  RESTRAINT  =         0.0000
 EKCMT  =        72.0108  VIRIAL  =       452.7564  VOLUME     =        25.0599
                                                    Density    =         0.0001
 DV/DL  =         7.5659
 ------------------------------------------------------------------------------

      DV/DL, AVERAGES OVER    1000 STEPS

 NSTEP =   500000   TIME(PS) =    1200.000  TEMP(K) =     2.03  PRESS =     0.0
 Etot   =         0.0000  EKtot   =         0.0000  EPtot      =        15.5031
 BOND   =         0.0000  ANGLE   =         0.0000  DIHED      =         0.0000
 1-4 NB =         0.0000  1-4 EEL =       -10.5337  VDWAALS    =         0.0000
 EELEC  =        26.0368  EHBOND  =         0.0000  RESTRAINT  =         0.0000
 EKCMT  =         0.0000  VIRIAL  =         0.0000  VOLUME     =         0.0000
                                                    Density    =         0.0000
 DV/DL  =        15.5031
 ------------------------------------------------------------------------------

      A V E R A G E S   O V E R  500000 S T E P S

 NSTEP =   500000   TIME(PS) =    1200.000  TEMP(K) =   300.20  PRESS =    -8.8
 Etot   =    -53793.8770  EKtot   =     12438.2612  EPtot      =    -66232.1382
 BOND   =         0.9541  ANGLE   =         5.1773  DIHED      =         5.2827
 1-4 NB =         0.5010  1-4 EEL =         0.5049  VDWAALS    =      9902.3604
 EELEC  =    -76146.9186  EHBOND  =         0.0000  RESTRAINT  =         0.0000
 EKCMT  =      6238.6722  VIRIAL  =      6281.0120  VOLUME     =    211787.6459
                                                    Density    =         0.9818
 DV/DL  =        12.7920
 ------------------------------------------------------------------------------

      R M S  F L U C T U A T I O N S

 NSTEP =   500000   TIME(PS) =    1200.000  TEMP(K) =     2.07  PRESS =   147.0
 Etot   =       175.9417  EKtot   =        85.6585  EPtot      =       151.3679
 BOND   =         0.7847  ANGLE   =         1.2089  DIHED      =         0.0914
 1-4 NB =         0.3015  1-4 EEL =         0.0084  VDWAALS    =       128.5941
 EELEC  =       231.0791  EHBOND  =         0.0000  RESTRAINT  =         0.0000
 EKCMT  =        60.9340  VIRIAL  =       680.1957  VOLUME     =      1335.5795
                                                    Density    =         0.0058
 DV/DL  =         8.8083
 ------------------------------------------------------------------------------

      A V E R A G E S   O V E R  500000 S T E P S

 NSTEP =   500000   TIME(PS) =    1200.000  TEMP(K) =   300.20  PRESS =    -8.8
 Etot   =    -53793.8770  EKtot   =     12438.2612  EPtot      =    -66232.1382
 BOND   =         0.9541  ANGLE   =         5.1773  DIHED      =         5.2827
 1-4 NB =         0.5010  1-4 EEL =         0.5049  VDWAALS    =      9902.3604
 EELEC  =    -76146.9186  EHBOND  =         0.0000  RESTRAINT  =         0.0000
 EKCMT  =      6238.6722  VIRIAL  =      6281.0120  VOLUME     =    211787.6459
                                                    Density    =         0.9818
 DV/DL  =        12.7920
 ------------------------------------------------------------------------------

      R M S  F L U C T U A T I O N S

 NSTEP =   500000   TIME(PS) =    1200.000  TEMP(K) =     2.07  PRESS =   147.0
 Etot   =       175.9417  EKtot   =        85.6585  EPtot      =       151.3679
 BOND   =         0.7847  ANGLE   =         1.2089  DIHED      =         0.0914
 1-4 NB =         0.3015  1-4 EEL =         0.0084  VDWAALS    =       128.5941
 EELEC  =       231.0791  EHBOND  =         0.0000  RESTRAINT  =         0.0000
 EKCMT  =        60.9340  VIRIAL  =       680.1957  VOLUME     =      1335.5795
                                                    Density    =         0.0058
 DV/DL  =         8.8083
 ------------------------------------------------------------------------------

      DV/DL, AVERAGES OVER  500000 STEPS

 NSTEP =   500000   TIME(PS) =    1200.000  TEMP(K) =     2.07  PRESS =     0.0
 Etot   =         0.0000  EKtot   =         0.0000  EPtot      =        12.7920
 BOND   =         0.0000  ANGLE   =         0.0000  DIHED      =         0.0000
 1-4 NB =         0.0000  1-4 EEL =       -10.5315  VDWAALS    =         0.0000
 EELEC  =        23.3235  EHBOND  =         0.0000  RESTRAINT  =         0.0000
 EKCMT  =         0.0000  VIRIAL  =         0.0000  VOLUME     =         0.0000
                                                    Density    =         0.0000
 DV/DL  =        12.7920
 ------------------------------------------------------------------------------
